REMARK  3 active torsions:
REMARK  status: ('A' for Active; 'I' for Inactive)
REMARK    1  A    between atoms: N_1  and  C13_12 
REMARK    2  A    between atoms: C9_8  and  C10_9 
REMARK    3  A    between atoms: C13_12  and  C14_13 
ROOT
HETATM    1  N   EPR A 401      -5.204   7.713  17.746  1.00 22.63    -0.275 N 
HETATM    2  O   EPR A 401      -4.587   9.159  16.069  1.00 22.19    -0.267 OA
HETATM    3  S   EPR A 401      -6.327   6.306  19.801  1.00 37.72    -0.025 SA
HETATM    4  S1  EPR A 401      -7.441   8.845  18.607  1.00 46.39    -0.062 SA
HETATM    5  C10 EPR A 401      -6.621   9.636  17.306  1.00 28.39     0.065 A 
HETATM    6  C11 EPR A 401      -5.405   8.825  16.999  1.00 25.11     0.264 A 
HETATM    7  C12 EPR A 401      -6.213   7.627  18.643  1.00 30.03     0.130 A 
ENDROOT
BRANCH   1   8
HETATM    8  C13 EPR A 401      -4.088   6.764  17.655  1.00 12.51     0.208 C 
BRANCH   8   9
HETATM    9  C14 EPR A 401      -4.309   5.855  16.480  1.00 17.64     0.210 C 
HETATM   10  O1  EPR A 401      -3.297   5.316  15.975  1.00 11.65    -0.646 OA
HETATM   11  O2  EPR A 401      -5.491   5.682  16.068  1.00 20.62    -0.646 OA
ENDBRANCH   8   9
ENDBRANCH   1   8
BRANCH   5  12
HETATM   12  C9  EPR A 401      -7.156  10.882  16.701  1.00 36.37     0.038 C 
HETATM   13  C1  EPR A 401      -8.169  11.725  17.455  1.00 31.79     0.006 C 
ENDBRANCH   5  12
TORSDOF 3
