@<TRIPOS>MOLECULE
result_docking1_4jir_Aldolase_Aspirin
 14 14 0 0 0
SMALL
GASTEIGER

@<TRIPOS>ATOM
      1  C5       -10.0860    8.3180   20.5450 C.2     1  UNK1        0.1546
      2  C6        -9.7170    7.3130   21.4390 C.2     1  UNK1        0.1100
      3  C7        -9.5370    8.3470   19.2640 C.2     1  UNK1        0.0378
      4  C8        -8.7990    6.3360   21.0510 C.2     1  UNK1        0.0095
      5  C9        -8.6190    7.3720   18.8750 C.2     1  UNK1        0.0031
      6  C10       -8.2500    6.3670   19.7690 C.2     1  UNK1        0.0004
      7  O1       -10.9830    9.2790   20.9050 O.3     1  UNK1       -0.4239
      8  C12      -12.2070    9.2020   20.2240 C.2     1  UNK1        0.3220
      9  O4       -12.9720    8.2470   20.2310 O.2     1  UNK1       -0.2497
     10  C13      -12.4560   10.4760   19.4720 C.3     1  UNK1        0.1216
     11  C11      -10.2800    7.2620   22.7820 C.2     1  UNK1        0.3410
     12  O3       -10.8820    6.3160   23.2810 O.2     1  UNK1       -0.2450
     13  O2       -10.0680    8.4210   23.4650 O.3     1  UNK1       -0.4770
     14 H          -9.6049    9.1266   23.0581 H       1  UNK1        0.2954
@<TRIPOS>BOND
     1     5     3    1
     2     5     6    2
     3     3     1    2
     4    10     8    1
     5     6     4    1
     6     8     9    2
     7     8     7    1
     8     1     7    1
     9     1     2    1
    10     4     2    2
    11     2    11    1
    12    11    12    2
    13    11    13    1
    14    13    14    1
