@<TRIPOS>MOLECULE
result_docking1_4jir_Aldolase_derivate_acd66
 38 40 0 0 0
SMALL
GASTEIGER

@<TRIPOS>ATOM
      1 C         -12.1150   10.8500   19.0120 C.3     1  UNL1        0.1740
      2 C         -12.6320   10.1090   20.2590 C.3     1  UNL1        0.1704
      3 C          -9.9590    9.8840   19.6110 C.3     1  UNL1        0.1830
      4 C         -10.7410    8.5720   19.5200 C.3     1  UNL1        0.2293
      5 C         -12.0730    8.6810   20.2810 C.3     1  UNL1        0.1826
      6 O         -10.6750   10.9900   19.0280 O.3     1  UNL1       -0.3453
      7 C          -8.6210    9.6690   18.9070 C.ar    1  UNL1        0.0477
      8 C          -8.0470    8.4450   19.0330 C.ar    1  UNL1        0.0774
      9 C          -8.6550    7.4230   19.9390 C.2     1  UNL1        0.3410
     10 O         -10.0030    7.4760   20.0930 O.3     1  UNL1       -0.4437
     11 C          -6.8160   10.3340   17.5200 C.ar    1  UNL1        0.0449
     12 C          -7.9950   10.6060   18.1410 C.ar    1  UNL1        0.1311
     13 C          -6.1210   11.3980   16.6970 C.3     1  UNL1        0.0374
     14 O          -7.9820    6.6170   20.5690 O.2     1  UNL1       -0.2449
     15 C          -6.8950    8.1670   18.3890 C.ar    1  UNL1        0.0382
     16 C          -6.2670    9.0950   17.6390 C.ar    1  UNL1        0.1302
     17 C          -6.3050    6.8060   18.4220 C.3     1  UNL1        0.1600
     18 N          -5.8850    6.2230   17.3440 N.3     1  UNL1       -0.0558
     19 N          -4.5310    6.0210   17.3090 N.pl3   1  UNL1       -0.1846
     20 C          -3.9740    4.8000   17.5420 C.cat   1  UNL1        0.3593
     21 N          -4.6390    3.7060   17.6970 N.pl3   1  UNL1       -0.2905
     22 N          -2.6250    4.7870   17.5820 N.pl3   1  UNL1       -0.2905
     23 O          -5.0770    8.7550   17.0100 O.3     1  UNL1       -0.5060
     24 O          -8.5450   11.8690   17.9780 O.3     1  UNL1       -0.5060
     25 O         -13.0180    7.7910   19.6670 O.3     1  UNL1       -0.3785
     26 C         -12.7060   12.2610   18.8920 C.3     1  UNL1        0.1692
     27 O         -13.9790   12.3290   19.5400 O.3     1  UNL1       -0.3794
     28 O         -12.1950   10.7750   21.4530 O.3     1  UNL1       -0.3794
     29 H          -3.9409    6.7832   17.1089 H       1  UNL1        0.2845
     30 H          -5.6230    3.7196   17.6672 H       1  UNL1        0.2546
     31 H          -4.1627    2.8572   17.8452 H       1  UNL1        0.2546
     32 H          -2.1209    5.6243   17.4632 H       1  UNL1        0.2546
     33 H          -2.1451    3.9402   17.7299 H       1  UNL1        0.2546
     34 H          -4.6272    9.3875   16.4850 H       1  UNL1        0.2922
     35 H          -8.1066   12.5062   17.4491 H       1  UNL1        0.2922
     36 H         -12.6664    6.8871   19.6799 H       1  UNL1        0.2106
     37 H         -14.3377   13.2262   19.4547 H       1  UNL1        0.2105
     38 H         -12.5376   11.6825   21.4609 H       1  UNL1        0.2105
@<TRIPOS>UNITY_ATOM_ATTR
21 1
charge 1
@<TRIPOS>BOND
     1    13    11    1
     2    23    16    1
     3    19    18    1
     4    19    20    1
     5    18    17    1
     6    11    16   ar
     7    11    12   ar
     8    20    22    1
     9    20    21    2
    10    16    15   ar
    11    24    12    1
    12    12     7   ar
    13    15    17    1
    14    15     8   ar
    15    26     1    1
    16    26    27    1
    17     7     8   ar
    18     7     3    1
    19     1     6    1
    20     1     2    1
    21     6     3    1
    22     8     9    1
    23     4     3    1
    24     4    10    1
    25     4     5    1
    26    25     5    1
    27     9    10    1
    28     9    14    2
    29     2     5    1
    30     2    28    1
    31    19    29    1
    32    21    30    1
    33    21    31    1
    34    22    32    1
    35    22    33    1
    36    23    34    1
    37    24    35    1
    38    25    36    1
    39    27    37    1
    40    28    38    1
