@<TRIPOS>MOLECULE
result_docking1_4jir_Aldolase_derivate_acd72
 53 55 0 0 0
SMALL
GASTEIGER

@<TRIPOS>ATOM
      1  C1        -3.3410   15.1440   16.6060 C.3     1  RES1        0.1740
      2  C2        -2.0900   14.6560   15.8550 C.3     1  RES1        0.1704
      3  C6        -4.6610   13.3390   15.7020 C.3     1  RES1        0.1830
      4  C7        -3.4470   12.5280   16.1590 C.3     1  RES1        0.2293
      5  C8        -2.1660   13.1360   15.5820 C.3     1  RES1        0.1826
      6  O9        -4.5080   14.7470   15.8570 O.3     1  RES1       -0.3453
      7  C10       -5.8730   12.7540   16.4140 C.2     1  RES1        0.0483
      8  C11       -5.8740   11.4050   16.5540 C.2     1  RES1        0.0800
      9  C12       -4.7780   10.5430   15.9950 C.2     1  RES1        0.3412
     10  O13       -3.5960   11.1650   15.7220 O.3     1  RES1       -0.4437
     11  C14       -7.8850   12.8320   17.6520 C.2     1  RES1        0.0458
     12  C15       -6.9060   13.4680   16.9430 C.2     1  RES1        0.1361
     13  C16       -8.9560   13.6200   18.3830 C.3     1  RES1        0.0374
     14  O18       -4.9240    9.3460   15.7870 O.2     1  RES1       -0.2449
     15  C19       -6.8770   10.7760   17.1950 C.2     1  RES1        0.0430
     16  C20       -7.8880   11.4760   17.7580 C.2     1  RES1        0.1377
     17  O21       -6.9230   14.8540   16.7960 O.2     1  RES1       -0.4741
     18  C26       -7.7820   15.3150   15.7330 C.3     1  RES1        0.2268
     19  C27       -7.3670   16.7000   15.2150 C.3     1  RES1        0.1411
     20  N28       -7.7950   16.9800   13.8320 N.am    1  RES1       -0.2669
     21  C29       -9.1680   17.0780   13.6210 C.2     1  RES1        0.2266
     22  O30       -9.9730   17.0040   14.5490 O.2     1  RES1       -0.2748
     23  C34       -9.6570   17.2930   12.2120 C.3     1  RES1        0.0948
     24  C31       -6.7920   16.8640   12.7290 C.3     1  RES1        0.1851
     25  C32       -5.9890   15.5670   12.9110 C.2     1  RES1        0.3329
     26  O35       -6.4530   14.4360   12.8070 O.2     1  RES1       -0.2484
     27  O33       -4.6900   15.7470   13.2140 O.3     1  RES1       -0.4790
     28  C36       -5.9340   18.1340   12.5820 C.3     1  RES1        0.0847
     29  S37       -5.4790   18.4990   10.8520 S.3     1  RES1       -0.1657
     30  O22       -8.9480   10.8820   18.4360 O.2     1  RES1       -0.4738
     31  C23       -8.6570    9.9210   19.4570 C.3     1  RES1        0.2268
     32  C24       -9.6280    8.7420   19.3290 C.3     1  RES1        0.1411
     33  N25       -9.8370    7.9870   20.5840 N.am    1  RES1       -0.2669
     34  C41       -9.1730    6.7920   20.8670 C.2     1  RES1        0.2266
     35  O42       -9.4710    6.0880   21.8320 O.2     1  RES1       -0.2748
     36  C43       -8.0460    6.3770   19.9530 C.3     1  RES1        0.0948
     37  C38      -10.9840    8.3150   21.4790 C.3     1  RES1        0.1851
     38  C39      -12.2170    8.7330   20.6590 C.2     1  RES1        0.3329
     39  O44      -12.9500    8.0060   19.9960 O.2     1  RES1       -0.2484
     40  O40      -12.4930   10.0520   20.7690 O.3     1  RES1       -0.4790
     41  C45      -10.6970    9.3410   22.5900 C.3     1  RES1        0.0847
     42  S46      -10.6840    8.5980   24.2630 S.3     1  RES1       -0.1657
     43  O17       -1.0380   12.4860   16.1880 O.3     1  RES1       -0.3785
     44  C5        -3.4020   16.6640   16.7580 C.3     1  RES1        0.1692
     45  O4        -3.9570   17.2290   15.5660 O.3     1  RES1       -0.3794
     46  O3        -1.9870   15.3370   14.5920 O.3     1  RES1       -0.3794
     47 H          -4.3428   16.6138   13.2917 H       1  RES1        0.2951
     48 H          -4.7256   19.6305   10.8105 H       1  RES1        0.1024
     49 H         -11.9332   10.6072   21.2753 H       1  RES1        0.2951
     50 H         -10.4250    9.5630   25.1856 H       1  RES1        0.1024
     51 H          -0.2181   12.8619   15.8312 H       1  RES1        0.2106
     52 H          -3.9990   18.1940   15.6548 H       1  RES1        0.2105
     53 H          -1.1976   15.0273   14.1211 H       1  RES1        0.2105
@<TRIPOS>BOND
     1    29    28    1
     2    23    21    1
     3    28    24    1
     4    24    25    1
     5    24    20    1
     6    26    25    2
     7    25    27    1
     8    21    20   am
     9    21    22    2
    10    20    19    1
    11    46     2    1
    12    19    18    1
    13    45    44    1
    14     5     2    1
    15     5     4    1
    16     5    43    1
    17     3     6    1
    18     3     4    1
    19     3     7    1
    20    10     9    1
    21    10     4    1
    22    18    17    1
    23    14     9    2
    24     2     1    1
    25     6     1    1
    26     9     8    1
    27     7     8    2
    28     7    12    1
    29     8    15    1
    30     1    44    1
    31    17    12    1
    32    12    11    2
    33    15    16    2
    34    11    16    1
    35    11    13    1
    36    16    30    1
    37    30    31    1
    38    32    31    1
    39    32    33    1
    40    36    34    1
    41    39    38    2
    42    33    34   am
    43    33    37    1
    44    38    40    1
    45    38    37    1
    46    34    35    2
    47    37    41    1
    48    41    42    1
    49    27    47    1
    50    29    48    1
    51    40    49    1
    52    42    50    1
    53    43    51    1
    54    45    52    1
    55    46    53    1
