MODEL 1
REMARK VINA RESULT:    -8.604      0.000      0.000
REMARK INTER + INTRA:         -14.072
REMARK INTER:                 -13.130
REMARK INTRA:                  -0.942
REMARK UNBOUND:                -0.942
REMARK SMILES COc1ccc(C(=O)OC[C@H]2O[C@H]3c4c(cc(O)c(OC)c4O)C(=O)O[C@@H]3[C@@H](O)[C@@H]2O)cc1OC
REMARK SMILES IDX 9 1 10 2 11 3 12 4 13 5 27 6 14 7 30 8 26 9 28 10 15 11
REMARK SMILES IDX 22 12 24 13 16 14 19 15 25 16 17 17 31 18 29 20 23 22 20 24
REMARK SMILES IDX 21 25 18 26 7 28 8 29 6 30 32 31 5 32 33 33 4 34 3 35 34 36
REMARK SMILES IDX 35 37 2 38 1 39
REMARK H PARENT 31 19 29 21 23 23 18 27
REMARK Flexibility Score: inf
ROOT
ATOM      1  O   UNL     1     -10.362   9.495  22.796  1.00  0.00    -0.459 OA
ENDROOT
BRANCH   1   2
ATOM      2  C   UNL     1     -10.499  10.161  21.554  1.00  0.00     0.268 C 
BRANCH   2   3
ATOM      3  C   UNL     1     -10.191   9.171  20.435  1.00  0.00     0.188 C 
ATOM      4  O   UNL     1      -9.065   9.685  19.715  1.00  0.00    -0.360 OA
ATOM      5  C   UNL     1      -8.749   8.887  18.577  1.00  0.00     0.197 C 
ATOM      6  C   UNL     1      -8.306   7.504  19.038  1.00  0.00     0.241 C 
ATOM      7  C   UNL     1      -7.616   9.467  17.774  1.00  0.00     0.045 A 
ATOM      8  C   UNL     1      -9.890   7.766  20.970  1.00  0.00     0.179 C 
ATOM      9  O   UNL     1      -8.007   6.684  17.891  1.00  0.00    -0.453 OA
ATOM     10  C   UNL     1      -9.416   6.838  19.850  1.00  0.00     0.189 C 
ATOM     11  C   UNL     1      -6.845   8.600  16.983  1.00  0.00     0.073 A 
ATOM     12  C   UNL     1      -7.340  10.840  17.749  1.00  0.00     0.168 A 
ATOM     13  C   UNL     1      -7.162   7.150  16.931  1.00  0.00     0.339 C 
ATOM     14  C   UNL     1      -5.799   9.099  16.199  1.00  0.00     0.066 A 
ATOM     15  C   UNL     1      -6.292  11.335  16.970  1.00  0.00     0.203 A 
ATOM     16  O   UNL     1      -6.704   6.426  16.056  1.00  0.00    -0.246 OA
ATOM     17  C   UNL     1      -5.521  10.466  16.201  1.00  0.00     0.162 A 
BRANCH   8  18
ATOM     18  O   UNL     1     -11.059   7.195  21.551  1.00  0.00    -0.387 OA
ATOM     19  H   UNL     1     -11.788   7.830  21.444  1.00  0.00     0.211 HD
ENDBRANCH   8  18
BRANCH  10  20
ATOM     20  O   UNL     1      -8.896   5.636  20.423  1.00  0.00    -0.386 OA
ATOM     21  H   UNL     1      -7.981   5.525  20.115  1.00  0.00     0.211 HD
ENDBRANCH  10  20
BRANCH  12  22
ATOM     22  O   UNL     1      -8.096  11.734  18.450  1.00  0.00    -0.504 OA
ATOM     23  H   UNL     1      -8.960  11.845  18.023  1.00  0.00     0.293 HD
ENDBRANCH  12  22
BRANCH  15  24
ATOM     24  O   UNL     1      -6.026  12.672  16.953  1.00  0.00    -0.490 OA
ATOM     25  C   UNL     1      -5.035  13.145  17.860  1.00  0.00     0.278 C 
ENDBRANCH  15  24
BRANCH  17  26
ATOM     26  O   UNL     1      -4.499  10.940  15.435  1.00  0.00    -0.504 OA
ATOM     27  H   UNL     1      -4.542  10.526  14.557  1.00  0.00     0.293 HD
ENDBRANCH  17  26
ENDBRANCH   2   3
ENDBRANCH   1   2
BRANCH   1  28
ATOM     28  C   UNL     1     -11.139   9.957  23.818  1.00  0.00     0.338 C 
ATOM     29  O   UNL     1     -11.954  10.862  23.740  1.00  0.00    -0.246 OA
BRANCH  28  30
ATOM     30  C   UNL     1     -10.869   9.208  25.071  1.00  0.00     0.064 A 
ATOM     31  C   UNL     1     -11.123   9.801  26.308  1.00  0.00     0.066 A 
ATOM     32  C   UNL     1     -10.359   7.911  25.011  1.00  0.00     0.020 A 
ATOM     33  C   UNL     1     -10.869   9.097  27.485  1.00  0.00     0.161 A 
ATOM     34  C   UNL     1     -10.104   7.207  26.189  1.00  0.00     0.051 A 
ATOM     35  C   UNL     1     -10.359   7.800  27.425  1.00  0.00     0.160 A 
BRANCH  33  36
ATOM     36  O   UNL     1     -11.123   9.686  28.686  1.00  0.00    -0.493 OA
ATOM     37  C   UNL     1     -12.492   9.842  29.054  1.00  0.00     0.278 C 
ENDBRANCH  33  36
BRANCH  35  38
ATOM     38  O   UNL     1     -10.107   7.101  28.567  1.00  0.00    -0.493 OA
ATOM     39  C   UNL     1      -9.237   5.976  28.460  1.00  0.00     0.278 C 
ENDBRANCH  35  38
ENDBRANCH  28  30
ENDBRANCH   1  28
TORSDOF 11
ENDMDL
MODEL 2
REMARK VINA RESULT:    -8.242      1.453      3.833
REMARK INTER + INTRA:         -13.520
REMARK INTER:                 -12.605
REMARK INTRA:                  -0.915
REMARK UNBOUND:                -0.942
REMARK SMILES COc1ccc(C(=O)OC[C@H]2O[C@H]3c4c(cc(O)c(OC)c4O)C(=O)O[C@@H]3[C@@H](O)[C@@H]2O)cc1OC
REMARK SMILES IDX 9 1 10 2 11 3 12 4 13 5 27 6 14 7 30 8 26 9 28 10 15 11
REMARK SMILES IDX 22 12 24 13 16 14 19 15 25 16 17 17 31 18 29 20 23 22 20 24
REMARK SMILES IDX 21 25 18 26 7 28 8 29 6 30 32 31 5 32 33 33 4 34 3 35 34 36
REMARK SMILES IDX 35 37 2 38 1 39
REMARK H PARENT 31 19 29 21 23 23 18 27
REMARK Flexibility Score: inf
ROOT
ATOM      1  O   UNL     1     -11.326   7.862  22.143  1.00  0.00    -0.459 OA
ENDROOT
BRANCH   1   2
ATOM      2  C   UNL     1     -11.052   7.862  20.755  1.00  0.00     0.268 C 
BRANCH   2   3
ATOM      3  C   UNL     1      -9.989   8.919  20.469  1.00  0.00     0.188 C 
ATOM      4  O   UNL     1      -9.119   8.381  19.467  1.00  0.00    -0.360 OA
ATOM      5  C   UNL     1      -8.021   9.249  19.193  1.00  0.00     0.197 C 
ATOM      6  C   UNL     1      -8.542  10.545  18.586  1.00  0.00     0.241 C 
ATOM      7  C   UNL     1      -7.062   8.652  18.197  1.00  0.00     0.045 A 
ATOM      8  C   UNL     1     -10.600  10.243  19.995  1.00  0.00     0.179 C 
ATOM      9  O   UNL     1      -7.439  11.437  18.327  1.00  0.00    -0.453 OA
ATOM     10  C   UNL     1      -9.515  11.225  19.549  1.00  0.00     0.189 C 
ATOM     11  C   UNL     1      -6.267   9.521  17.432  1.00  0.00     0.073 A 
ATOM     12  C   UNL     1      -6.899   7.269  18.048  1.00  0.00     0.168 A 
ATOM     13  C   UNL     1      -6.364  10.990  17.622  1.00  0.00     0.339 C 
ATOM     14  C   UNL     1      -5.343   9.010  16.514  1.00  0.00     0.066 A 
ATOM     15  C   UNL     1      -5.980   6.762  17.128  1.00  0.00     0.203 A 
ATOM     16  O   UNL     1      -5.507  11.750  17.188  1.00  0.00    -0.246 OA
ATOM     17  C   UNL     1      -5.207   7.631  16.360  1.00  0.00     0.162 A 
BRANCH   8  18
ATOM     18  O   UNL     1     -11.342  10.852  21.048  1.00  0.00    -0.387 OA
ATOM     19  H   UNL     1     -12.286  10.689  20.884  1.00  0.00     0.211 HD
ENDBRANCH   8  18
BRANCH  10  20
ATOM     20  O   UNL     1     -10.126  12.325  18.873  1.00  0.00    -0.386 OA
ATOM     21  H   UNL     1     -11.086  12.272  19.013  1.00  0.00     0.211 HD
ENDBRANCH  10  20
BRANCH  12  22
ATOM     22  O   UNL     1      -7.601   6.380  18.810  1.00  0.00    -0.504 OA
ATOM     23  H   UNL     1      -7.186   6.290  19.683  1.00  0.00     0.293 HD
ENDBRANCH  12  22
BRANCH  15  24
ATOM     24  O   UNL     1      -5.829   5.414  16.985  1.00  0.00    -0.490 OA
ATOM     25  C   UNL     1      -4.756   4.805  17.699  1.00  0.00     0.278 C 
ENDBRANCH  15  24
BRANCH  17  26
ATOM     26  O   UNL     1      -4.305   7.145  15.462  1.00  0.00    -0.504 OA
ATOM     27  H   UNL     1      -3.853   7.890  15.031  1.00  0.00     0.293 HD
ENDBRANCH  17  26
ENDBRANCH   2   3
ENDBRANCH   1   2
BRANCH   1  28
ATOM     28  C   UNL     1     -10.432   7.202  22.935  1.00  0.00     0.338 C 
ATOM     29  O   UNL     1      -9.672   6.319  22.570  1.00  0.00    -0.246 OA
BRANCH  28  30
ATOM     30  C   UNL     1     -10.493   7.698  24.333  1.00  0.00     0.064 A 
ATOM     31  C   UNL     1     -10.062   6.886  25.382  1.00  0.00     0.066 A 
ATOM     32  C   UNL     1     -10.983   8.977  24.597  1.00  0.00     0.020 A 
ATOM     33  C   UNL     1     -10.120   7.353  26.695  1.00  0.00     0.161 A 
ATOM     34  C   UNL     1     -11.042   9.444  25.911  1.00  0.00     0.051 A 
ATOM     35  C   UNL     1     -10.610   8.632  26.960  1.00  0.00     0.160 A 
BRANCH  33  36
ATOM     36  O   UNL     1      -9.695   6.550  27.711  1.00  0.00    -0.493 OA
ATOM     37  C   UNL     1     -10.414   5.336  27.921  1.00  0.00     0.278 C 
ENDBRANCH  33  36
BRANCH  35  38
ATOM     38  O   UNL     1     -10.671   9.099  28.238  1.00  0.00    -0.493 OA
ATOM     39  C   UNL     1     -11.894   8.897  28.944  1.00  0.00     0.278 C 
ENDBRANCH  35  38
ENDBRANCH  28  30
ENDBRANCH   1  28
TORSDOF 11
ENDMDL
MODEL 3
REMARK VINA RESULT:    -8.241      4.709     10.069
REMARK INTER + INTRA:         -13.519
REMARK INTER:                 -13.301
REMARK INTRA:                  -0.217
REMARK UNBOUND:                -0.942
REMARK SMILES COc1ccc(C(=O)OC[C@H]2O[C@H]3c4c(cc(O)c(OC)c4O)C(=O)O[C@@H]3[C@@H](O)[C@@H]2O)cc1OC
REMARK SMILES IDX 9 1 10 2 11 3 12 4 13 5 27 6 14 7 30 8 26 9 28 10 15 11
REMARK SMILES IDX 22 12 24 13 16 14 19 15 25 16 17 17 31 18 29 20 23 22 20 24
REMARK SMILES IDX 21 25 18 26 7 28 8 29 6 30 32 31 5 32 33 33 4 34 3 35 34 36
REMARK SMILES IDX 35 37 2 38 1 39
REMARK H PARENT 31 19 29 21 23 23 18 27
REMARK Flexibility Score: inf
ROOT
ATOM      1  O   UNL     1      -4.100   4.854  17.603  1.00  0.00    -0.459 OA
ENDROOT
BRANCH   1   2
ATOM      2  C   UNL     1      -5.416   4.866  18.125  1.00  0.00     0.268 C 
BRANCH   2   3
ATOM      3  C   UNL     1      -6.111   6.141  17.661  1.00  0.00     0.188 C 
ATOM      4  O   UNL     1      -6.938   6.588  18.742  1.00  0.00    -0.360 OA
ATOM      5  C   UNL     1      -7.718   7.726  18.382  1.00  0.00     0.197 C 
ATOM      6  C   UNL     1      -6.793   8.903  18.100  1.00  0.00     0.241 C 
ATOM      7  C   UNL     1      -8.646   8.151  19.489  1.00  0.00     0.045 A 
ATOM      8  C   UNL     1      -5.113   7.234  17.262  1.00  0.00     0.179 C 
ATOM      9  O   UNL     1      -7.574  10.052  17.714  1.00  0.00    -0.453 OA
ATOM     10  C   UNL     1      -5.826   8.556  16.969  1.00  0.00     0.189 C 
ATOM     11  C   UNL     1      -9.066   9.490  19.532  1.00  0.00     0.073 A 
ATOM     12  C   UNL     1      -9.142   7.249  20.439  1.00  0.00     0.168 A 
ATOM     13  C   UNL     1      -8.616  10.451  18.494  1.00  0.00     0.339 C 
ATOM     14  C   UNL     1      -9.949   9.922  20.527  1.00  0.00     0.066 A 
ATOM     15  C   UNL     1     -10.019   7.684  21.434  1.00  0.00     0.203 A 
ATOM     16  O   UNL     1      -9.172  11.531  18.337  1.00  0.00    -0.246 OA
ATOM     17  C   UNL     1     -10.417   9.019  21.480  1.00  0.00     0.162 A 
BRANCH   8  18
ATOM     18  O   UNL     1      -4.397   6.850  16.091  1.00  0.00    -0.387 OA
ATOM     19  H   UNL     1      -4.999   6.337  15.526  1.00  0.00     0.211 HD
ENDBRANCH   8  18
BRANCH  10  20
ATOM     20  O   UNL     1      -4.857   9.601  16.866  1.00  0.00    -0.386 OA
ATOM     21  H   UNL     1      -3.998   9.198  16.657  1.00  0.00     0.211 HD
ENDBRANCH  10  20
BRANCH  12  22
ATOM     22  O   UNL     1      -8.815   5.924  20.407  1.00  0.00    -0.504 OA
ATOM     23  H   UNL     1      -9.544   5.412  20.020  1.00  0.00     0.293 HD
ENDBRANCH  12  22
BRANCH  15  24
ATOM     24  O   UNL     1     -10.496   6.803  22.358  1.00  0.00    -0.490 OA
ATOM     25  C   UNL     1      -9.891   6.829  23.649  1.00  0.00     0.278 C 
ENDBRANCH  15  24
BRANCH  17  26
ATOM     26  O   UNL     1     -11.276   9.453  22.445  1.00  0.00    -0.504 OA
ATOM     27  H   UNL     1     -10.816   9.457  23.301  1.00  0.00     0.293 HD
ENDBRANCH  17  26
ENDBRANCH   2   3
ENDBRANCH   1   2
BRANCH   1  28
ATOM     28  C   UNL     1      -3.596   3.632  17.264  1.00  0.00     0.338 C 
ATOM     29  O   UNL     1      -4.251   2.663  16.914  1.00  0.00    -0.246 OA
BRANCH  28  30
ATOM     30  C   UNL     1      -2.115   3.619  17.375  1.00  0.00     0.064 A 
ATOM     31  C   UNL     1      -1.480   4.401  18.339  1.00  0.00     0.066 A 
ATOM     32  C   UNL     1      -1.360   2.824  16.513  1.00  0.00     0.020 A 
ATOM     33  C   UNL     1      -0.089   4.389  18.443  1.00  0.00     0.161 A 
ATOM     34  C   UNL     1       0.032   2.813  16.616  1.00  0.00     0.051 A 
ATOM     35  C   UNL     1       0.667   3.594  17.581  1.00  0.00     0.160 A 
BRANCH  33  36
ATOM     36  O   UNL     1       0.519   5.157  19.389  1.00  0.00    -0.493 OA
ATOM     37  C   UNL     1       1.169   4.472  20.458  1.00  0.00     0.278 C 
ENDBRANCH  33  36
BRANCH  35  38
ATOM     38  O   UNL     1       2.026   3.573  17.672  1.00  0.00    -0.493 OA
ATOM     39  C   UNL     1       2.732   4.659  17.076  1.00  0.00     0.278 C 
ENDBRANCH  35  38
ENDBRANCH  28  30
ENDBRANCH   1  28
TORSDOF 11
ENDMDL
MODEL 4
REMARK VINA RESULT:    -8.229      1.449      9.546
REMARK INTER + INTRA:         -13.501
REMARK INTER:                 -12.547
REMARK INTRA:                  -0.954
REMARK UNBOUND:                -0.942
REMARK SMILES COc1ccc(C(=O)OC[C@H]2O[C@H]3c4c(cc(O)c(OC)c4O)C(=O)O[C@@H]3[C@@H](O)[C@@H]2O)cc1OC
REMARK SMILES IDX 9 1 10 2 11 3 12 4 13 5 27 6 14 7 30 8 26 9 28 10 15 11
REMARK SMILES IDX 22 12 24 13 16 14 19 15 25 16 17 17 31 18 29 20 23 22 20 24
REMARK SMILES IDX 21 25 18 26 7 28 8 29 6 30 32 31 5 32 33 33 4 34 3 35 34 36
REMARK SMILES IDX 35 37 2 38 1 39
REMARK H PARENT 31 19 29 21 23 23 18 27
REMARK Flexibility Score: inf
ROOT
ATOM      1  O   UNL     1      -8.180   7.608  19.904  1.00  0.00    -0.459 OA
ENDROOT
BRANCH   1   2
ATOM      2  C   UNL     1      -9.243   6.853  20.456  1.00  0.00     0.268 C 
BRANCH   2   3
ATOM      3  C   UNL     1     -10.230   7.812  21.113  1.00  0.00     0.188 C 
ATOM      4  O   UNL     1      -9.998   7.755  22.525  1.00  0.00    -0.360 OA
ATOM      5  C   UNL     1     -10.938   8.541  23.253  1.00  0.00     0.197 C 
ATOM      6  C   UNL     1     -10.749  10.010  22.897  1.00  0.00     0.241 C 
ATOM      7  C   UNL     1     -10.746   8.421  24.741  1.00  0.00     0.045 A 
ATOM      8  C   UNL     1     -10.071   9.249  20.601  1.00  0.00     0.179 C 
ATOM      9  O   UNL     1     -11.712  10.810  23.613  1.00  0.00    -0.453 OA
ATOM     10  C   UNL     1     -10.946  10.219  21.396  1.00  0.00     0.189 C 
ATOM     11  C   UNL     1     -11.184   9.476  25.558  1.00  0.00     0.073 A 
ATOM     12  C   UNL     1     -10.199   7.278  25.337  1.00  0.00     0.168 A 
ATOM     13  C   UNL     1     -11.837  10.668  24.960  1.00  0.00     0.339 C 
ATOM     14  C   UNL     1     -11.051   9.396  26.949  1.00  0.00     0.066 A 
ATOM     15  C   UNL     1     -10.062   7.203  26.724  1.00  0.00     0.203 A 
ATOM     16  O   UNL     1     -12.472  11.460  25.644  1.00  0.00    -0.246 OA
ATOM     17  C   UNL     1     -10.483   8.261  27.527  1.00  0.00     0.162 A 
BRANCH   8  18
ATOM     18  O   UNL     1     -10.451   9.332  19.231  1.00  0.00    -0.387 OA
ATOM     19  H   UNL     1     -10.469  10.271  18.980  1.00  0.00     0.211 HD
ENDBRANCH   8  18
BRANCH  10  20
ATOM     20  O   UNL     1     -10.574  11.561  21.074  1.00  0.00    -0.386 OA
ATOM     21  H   UNL     1     -11.032  11.814  20.255  1.00  0.00     0.211 HD
ENDBRANCH  10  20
BRANCH  12  22
ATOM     22  O   UNL     1      -9.814   6.199  24.595  1.00  0.00    -0.504 OA
ATOM     23  H   UNL     1      -8.870   6.263  24.381  1.00  0.00     0.293 HD
ENDBRANCH  12  22
BRANCH  15  24
ATOM     24  O   UNL     1      -9.524   6.089  27.299  1.00  0.00    -0.490 OA
ATOM     25  C   UNL     1     -10.437   5.100  27.769  1.00  0.00     0.278 C 
ENDBRANCH  15  24
BRANCH  17  26
ATOM     26  O   UNL     1     -10.357   8.195  28.883  1.00  0.00    -0.504 OA
ATOM     27  H   UNL     1     -10.743   7.361  29.198  1.00  0.00     0.293 HD
ENDBRANCH  17  26
ENDBRANCH   2   3
ENDBRANCH   1   2
BRANCH   1  28
ATOM     28  C   UNL     1      -7.870   7.349  18.601  1.00  0.00     0.338 C 
ATOM     29  O   UNL     1      -8.081   6.301  18.011  1.00  0.00    -0.246 OA
BRANCH  28  30
ATOM     30  C   UNL     1      -7.225   8.526  17.965  1.00  0.00     0.064 A 
ATOM     31  C   UNL     1      -6.498   9.429  18.742  1.00  0.00     0.066 A 
ATOM     32  C   UNL     1      -7.347   8.729  16.590  1.00  0.00     0.020 A 
ATOM     33  C   UNL     1      -5.893  10.535  18.144  1.00  0.00     0.161 A 
ATOM     34  C   UNL     1      -6.742   9.835  15.993  1.00  0.00     0.051 A 
ATOM     35  C   UNL     1      -6.015  10.737  16.769  1.00  0.00     0.160 A 
BRANCH  33  36
ATOM     36  O   UNL     1      -5.186  11.408  18.913  1.00  0.00    -0.493 OA
ATOM     37  C   UNL     1      -5.936  12.327  19.706  1.00  0.00     0.278 C 
ENDBRANCH  33  36
BRANCH  35  38
ATOM     38  O   UNL     1      -5.428  11.813  16.173  1.00  0.00    -0.493 OA
ATOM     39  C   UNL     1      -4.077  11.657  15.743  1.00  0.00     0.278 C 
ENDBRANCH  35  38
ENDBRANCH  28  30
ENDBRANCH   1  28
TORSDOF 11
ENDMDL
MODEL 5
REMARK VINA RESULT:    -8.216      4.052      9.612
REMARK INTER + INTRA:         -13.480
REMARK INTER:                 -12.556
REMARK INTRA:                  -0.924
REMARK UNBOUND:                -0.942
REMARK SMILES COc1ccc(C(=O)OC[C@H]2O[C@H]3c4c(cc(O)c(OC)c4O)C(=O)O[C@@H]3[C@@H](O)[C@@H]2O)cc1OC
REMARK SMILES IDX 9 1 10 2 11 3 12 4 13 5 27 6 14 7 30 8 26 9 28 10 15 11
REMARK SMILES IDX 22 12 24 13 16 14 19 15 25 16 17 17 31 18 29 20 23 22 20 24
REMARK SMILES IDX 21 25 18 26 7 28 8 29 6 30 32 31 5 32 33 33 4 34 3 35 34 36
REMARK SMILES IDX 35 37 2 38 1 39
REMARK H PARENT 31 19 29 21 23 23 18 27
REMARK Flexibility Score: inf
ROOT
ATOM      1  O   UNL     1      -4.911  11.855  17.011  1.00  0.00    -0.459 OA
ENDROOT
BRANCH   1   2
ATOM      2  C   UNL     1      -6.039  11.109  16.595  1.00  0.00     0.268 C 
BRANCH   2   3
ATOM      3  C   UNL     1      -6.178   9.891  17.504  1.00  0.00     0.188 C 
ATOM      4  O   UNL     1      -7.542   9.843  17.939  1.00  0.00    -0.360 OA
ATOM      5  C   UNL     1      -7.765   8.795  18.879  1.00  0.00     0.197 C 
ATOM      6  C   UNL     1      -7.535   7.451  18.201  1.00  0.00     0.241 C 
ATOM      7  C   UNL     1      -9.178   8.790  19.398  1.00  0.00     0.045 A 
ATOM      8  C   UNL     1      -5.796   8.589  16.790  1.00  0.00     0.179 C 
ATOM      9  O   UNL     1      -7.737   6.387  19.153  1.00  0.00    -0.453 OA
ATOM     10  C   UNL     1      -6.108   7.370  17.660  1.00  0.00     0.189 C 
ATOM     11  C   UNL     1      -9.709   7.583  19.879  1.00  0.00     0.073 A 
ATOM     12  C   UNL     1      -9.956   9.953  19.466  1.00  0.00     0.168 A 
ATOM     13  C   UNL     1      -8.881   6.350  19.889  1.00  0.00     0.339 C 
ATOM     14  C   UNL     1     -11.009   7.537  20.395  1.00  0.00     0.066 A 
ATOM     15  C   UNL     1     -11.254   9.904  19.977  1.00  0.00     0.203 A 
ATOM     16  O   UNL     1      -9.204   5.368  20.546  1.00  0.00    -0.246 OA
ATOM     17  C   UNL     1     -11.780   8.698  20.436  1.00  0.00     0.162 A 
BRANCH   8  18
ATOM     18  O   UNL     1      -4.402   8.575  16.495  1.00  0.00    -0.387 OA
ATOM     19  H   UNL     1      -4.101   9.496  16.424  1.00  0.00     0.211 HD
ENDBRANCH   8  18
BRANCH  10  20
ATOM     20  O   UNL     1      -5.992   6.185  16.869  1.00  0.00    -0.386 OA
ATOM     21  H   UNL     1      -6.515   5.484  17.295  1.00  0.00     0.211 HD
ENDBRANCH  10  20
BRANCH  12  22
ATOM     22  O   UNL     1      -9.468  11.165  19.070  1.00  0.00    -0.504 OA
ATOM     23  H   UNL     1     -10.092  11.592  18.463  1.00  0.00     0.293 HD
ENDBRANCH  12  22
BRANCH  15  24
ATOM     24  O   UNL     1     -12.009  11.038  20.037  1.00  0.00    -0.490 OA
ATOM     25  C   UNL     1     -12.814  11.339  18.900  1.00  0.00     0.278 C 
ENDBRANCH  15  24
BRANCH  17  26
ATOM     26  O   UNL     1     -13.045   8.641  20.939  1.00  0.00    -0.504 OA
ATOM     27  H   UNL     1     -13.337   7.714  20.962  1.00  0.00     0.293 HD
ENDBRANCH  17  26
ENDBRANCH   2   3
ENDBRANCH   1   2
BRANCH   1  28
ATOM     28  C   UNL     1      -3.843  11.858  16.161  1.00  0.00     0.338 C 
ATOM     29  O   UNL     1      -3.632  11.042  15.278  1.00  0.00    -0.246 OA
BRANCH  28  30
ATOM     30  C   UNL     1      -2.941  13.003  16.446  1.00  0.00     0.064 A 
ATOM     31  C   UNL     1      -2.561  13.283  17.759  1.00  0.00     0.066 A 
ATOM     32  C   UNL     1      -2.474  13.799  15.400  1.00  0.00     0.020 A 
ATOM     33  C   UNL     1      -1.714  14.359  18.026  1.00  0.00     0.161 A 
ATOM     34  C   UNL     1      -1.627  14.875  15.667  1.00  0.00     0.051 A 
ATOM     35  C   UNL     1      -1.247  15.154  16.980  1.00  0.00     0.160 A 
BRANCH  33  36
ATOM     36  O   UNL     1      -1.349  14.621  19.312  1.00  0.00    -0.493 OA
ATOM     37  C   UNL     1      -2.400  14.871  20.244  1.00  0.00     0.278 C 
ENDBRANCH  33  36
BRANCH  35  38
ATOM     38  O   UNL     1      -0.418  16.207  17.227  1.00  0.00    -0.493 OA
ATOM     39  C   UNL     1       0.965  16.025  16.935  1.00  0.00     0.278 C 
ENDBRANCH  35  38
ENDBRANCH  28  30
ENDBRANCH   1  28
TORSDOF 11
ENDMDL
MODEL 6
REMARK VINA RESULT:    -8.211      1.122      1.916
REMARK INTER + INTRA:         -13.473
REMARK INTER:                 -12.304
REMARK INTRA:                  -1.169
REMARK UNBOUND:                -0.942
REMARK SMILES COc1ccc(C(=O)OC[C@H]2O[C@H]3c4c(cc(O)c(OC)c4O)C(=O)O[C@@H]3[C@@H](O)[C@@H]2O)cc1OC
REMARK SMILES IDX 9 1 10 2 11 3 12 4 13 5 27 6 14 7 30 8 26 9 28 10 15 11
REMARK SMILES IDX 22 12 24 13 16 14 19 15 25 16 17 17 31 18 29 20 23 22 20 24
REMARK SMILES IDX 21 25 18 26 7 28 8 29 6 30 32 31 5 32 33 33 4 34 3 35 34 36
REMARK SMILES IDX 35 37 2 38 1 39
REMARK H PARENT 31 19 29 21 23 23 18 27
REMARK Flexibility Score: inf
ROOT
ATOM      1  O   UNL     1     -10.503  10.484  21.972  1.00  0.00    -0.459 OA
ENDROOT
BRANCH   1   2
ATOM      2  C   UNL     1     -10.972  10.580  20.640  1.00  0.00     0.268 C 
BRANCH   2   3
ATOM      3  C   UNL     1     -10.449   9.382  19.853  1.00  0.00     0.188 C 
ATOM      4  O   UNL     1      -9.251   9.804  19.191  1.00  0.00    -0.360 OA
ATOM      5  C   UNL     1      -8.726   8.788  18.340  1.00  0.00     0.197 C 
ATOM      6  C   UNL     1      -8.293   7.596  19.184  1.00  0.00     0.241 C 
ATOM      7  C   UNL     1      -7.511   9.254  17.583  1.00  0.00     0.045 A 
ATOM      8  C   UNL     1     -10.168   8.174  20.754  1.00  0.00     0.179 C 
ATOM      9  O   UNL     1      -7.782   6.555  18.327  1.00  0.00    -0.453 OA
ATOM     10  C   UNL     1      -9.482   7.050  19.975  1.00  0.00     0.189 C 
ATOM     11  C   UNL     1      -6.587   8.292  17.144  1.00  0.00     0.073 A 
ATOM     12  C   UNL     1      -7.300  10.600  17.258  1.00  0.00     0.168 A 
ATOM     13  C   UNL     1      -6.823   6.850  17.408  1.00  0.00     0.339 C 
ATOM     14  C   UNL     1      -5.458   8.677  16.414  1.00  0.00     0.066 A 
ATOM     15  C   UNL     1      -6.170  10.982  16.534  1.00  0.00     0.203 A 
ATOM     16  O   UNL     1      -6.202   5.980  16.811  1.00  0.00    -0.246 OA
ATOM     17  C   UNL     1      -5.249  10.024  16.117  1.00  0.00     0.162 A 
BRANCH   8  18
ATOM     18  O   UNL     1     -11.384   7.661  21.291  1.00  0.00    -0.387 OA
ATOM     19  H   UNL     1     -11.866   7.219  20.572  1.00  0.00     0.211 HD
ENDBRANCH   8  18
BRANCH  10  20
ATOM     20  O   UNL     1      -9.001   6.067  20.892  1.00  0.00    -0.386 OA
ATOM     21  H   UNL     1      -9.697   5.900  21.550  1.00  0.00     0.211 HD
ENDBRANCH  10  20
BRANCH  12  22
ATOM     22  O   UNL     1      -8.198  11.569  17.606  1.00  0.00    -0.504 OA
ATOM     23  H   UNL     1      -9.037  11.426  17.140  1.00  0.00     0.293 HD
ENDBRANCH  12  22
BRANCH  15  24
ATOM     24  O   UNL     1      -5.968  12.295  16.224  1.00  0.00    -0.490 OA
ATOM     25  C   UNL     1      -5.202  13.066  17.146  1.00  0.00     0.278 C 
ENDBRANCH  15  24
BRANCH  17  26
ATOM     26  O   UNL     1      -4.144  10.387  15.406  1.00  0.00    -0.504 OA
ATOM     27  H   UNL     1      -3.582  10.954  15.960  1.00  0.00     0.293 HD
ENDBRANCH  17  26
ENDBRANCH   2   3
ENDBRANCH   1   2
BRANCH   1  28
ATOM     28  C   UNL     1     -11.218  11.165  22.914  1.00  0.00     0.338 C 
ATOM     29  O   UNL     1     -11.855  12.188  22.724  1.00  0.00    -0.246 OA
BRANCH  28  30
ATOM     30  C   UNL     1     -11.126  10.496  24.236  1.00  0.00     0.064 A 
ATOM     31  C   UNL     1     -10.680   9.177  24.322  1.00  0.00     0.066 A 
ATOM     32  C   UNL     1     -11.485  11.187  25.393  1.00  0.00     0.020 A 
ATOM     33  C   UNL     1     -10.594   8.549  25.565  1.00  0.00     0.161 A 
ATOM     34  C   UNL     1     -11.400  10.559  26.636  1.00  0.00     0.051 A 
ATOM     35  C   UNL     1     -10.954   9.240  26.722  1.00  0.00     0.160 A 
BRANCH  33  36
ATOM     36  O   UNL     1     -10.157   7.260  25.636  1.00  0.00    -0.493 OA
ATOM     37  C   UNL     1     -10.171   6.505  24.426  1.00  0.00     0.278 C 
ENDBRANCH  33  36
BRANCH  35  38
ATOM     38  O   UNL     1     -10.874   8.638  27.942  1.00  0.00    -0.493 OA
ATOM     39  C   UNL     1     -11.868   8.986  28.902  1.00  0.00     0.278 C 
ENDBRANCH  35  38
ENDBRANCH  28  30
ENDBRANCH   1  28
TORSDOF 11
ENDMDL
MODEL 7
REMARK VINA RESULT:    -8.211      3.709      9.373
REMARK INTER + INTRA:         -13.473
REMARK INTER:                 -12.569
REMARK INTRA:                  -0.904
REMARK UNBOUND:                -0.942
REMARK SMILES COc1ccc(C(=O)OC[C@H]2O[C@H]3c4c(cc(O)c(OC)c4O)C(=O)O[C@@H]3[C@@H](O)[C@@H]2O)cc1OC
REMARK SMILES IDX 9 1 10 2 11 3 12 4 13 5 27 6 14 7 30 8 26 9 28 10 15 11
REMARK SMILES IDX 22 12 24 13 16 14 19 15 25 16 17 17 31 18 29 20 23 22 20 24
REMARK SMILES IDX 21 25 18 26 7 28 8 29 6 30 32 31 5 32 33 33 4 34 3 35 34 36
REMARK SMILES IDX 35 37 2 38 1 39
REMARK H PARENT 31 19 29 21 23 23 18 27
REMARK Flexibility Score: inf
ROOT
ATOM      1  O   UNL     1      -5.733  11.799  16.613  1.00  0.00    -0.459 OA
ENDROOT
BRANCH   1   2
ATOM      2  C   UNL     1      -6.605  10.718  16.339  1.00  0.00     0.268 C 
BRANCH   2   3
ATOM      3  C   UNL     1      -6.614   9.783  17.544  1.00  0.00     0.188 C 
ATOM      4  O   UNL     1      -7.963   9.726  18.023  1.00  0.00    -0.360 OA
ATOM      5  C   UNL     1      -8.072   8.955  19.216  1.00  0.00     0.197 C 
ATOM      6  C   UNL     1      -7.716   7.505  18.915  1.00  0.00     0.241 C 
ATOM      7  C   UNL     1      -9.474   8.957  19.766  1.00  0.00     0.045 A 
ATOM      8  C   UNL     1      -6.110   8.378  17.192  1.00  0.00     0.179 C 
ATOM      9  O   UNL     1      -7.803   6.723  20.123  1.00  0.00    -0.453 OA
ATOM     10  C   UNL     1      -6.292   7.415  18.366  1.00  0.00     0.189 C 
ATOM     11  C   UNL     1      -9.878   7.880  20.570  1.00  0.00     0.073 A 
ATOM     12  C   UNL     1     -10.363  10.017  19.547  1.00  0.00     0.168 A 
ATOM     13  C   UNL     1      -8.932   6.779  20.881  1.00  0.00     0.339 C 
ATOM     14  C   UNL     1     -11.163   7.853  21.124  1.00  0.00     0.066 A 
ATOM     15  C   UNL     1     -11.646   9.986  20.097  1.00  0.00     0.203 A 
ATOM     16  O   UNL     1      -9.150   5.984  21.787  1.00  0.00    -0.246 OA
ATOM     17  C   UNL     1     -12.046   8.905  20.880  1.00  0.00     0.162 A 
BRANCH   8  18
ATOM     18  O   UNL     1      -4.724   8.417  16.863  1.00  0.00    -0.387 OA
ATOM     19  H   UNL     1      -4.302   9.094  17.418  1.00  0.00     0.211 HD
ENDBRANCH   8  18
BRANCH  10  20
ATOM     20  O   UNL     1      -6.065   6.078  17.917  1.00  0.00    -0.386 OA
ATOM     21  H   UNL     1      -5.336   5.703  18.439  1.00  0.00     0.211 HD
ENDBRANCH  10  20
BRANCH  12  22
ATOM     22  O   UNL     1     -10.001  11.118  18.826  1.00  0.00    -0.504 OA
ATOM     23  H   UNL     1     -10.645  11.276  18.117  1.00  0.00     0.293 HD
ENDBRANCH  12  22
BRANCH  15  24
ATOM     24  O   UNL     1     -12.509  11.019  19.878  1.00  0.00    -0.490 OA
ATOM     25  C   UNL     1     -12.517  12.070  20.841  1.00  0.00     0.278 C 
ENDBRANCH  15  24
BRANCH  17  26
ATOM     26  O   UNL     1     -13.295   8.867  21.424  1.00  0.00    -0.504 OA
ATOM     27  H   UNL     1     -13.787   8.123  21.038  1.00  0.00     0.293 HD
ENDBRANCH  17  26
ENDBRANCH   2   3
ENDBRANCH   1   2
BRANCH   1  28
ATOM     28  C   UNL     1      -4.441  11.652  16.199  1.00  0.00     0.338 C 
ATOM     29  O   UNL     1      -4.054  10.896  15.322  1.00  0.00    -0.246 OA
BRANCH  28  30
ATOM     30  C   UNL     1      -3.534  12.545  16.964  1.00  0.00     0.064 A 
ATOM     31  C   UNL     1      -2.374  13.041  16.366  1.00  0.00     0.066 A 
ATOM     32  C   UNL     1      -3.841  12.888  18.280  1.00  0.00     0.020 A 
ATOM     33  C   UNL     1      -1.523  13.880  17.085  1.00  0.00     0.161 A 
ATOM     34  C   UNL     1      -2.988  13.727  18.999  1.00  0.00     0.051 A 
ATOM     35  C   UNL     1      -1.830  14.223  18.401  1.00  0.00     0.160 A 
BRANCH  33  36
ATOM     36  O   UNL     1      -0.394  14.358  16.490  1.00  0.00    -0.493 OA
ATOM     37  C   UNL     1      -0.511  15.586  15.773  1.00  0.00     0.278 C 
ENDBRANCH  33  36
BRANCH  35  38
ATOM     38  O   UNL     1      -1.006  15.042  19.114  1.00  0.00    -0.493 OA
ATOM     39  C   UNL     1      -1.304  15.215  20.497  1.00  0.00     0.278 C 
ENDBRANCH  35  38
ENDBRANCH  28  30
ENDBRANCH   1  28
TORSDOF 11
ENDMDL
MODEL 8
REMARK VINA RESULT:    -8.034      3.527      6.153
REMARK INTER + INTRA:         -13.203
REMARK INTER:                 -12.425
REMARK INTRA:                  -0.778
REMARK UNBOUND:                -0.942
REMARK SMILES COc1ccc(C(=O)OC[C@H]2O[C@H]3c4c(cc(O)c(OC)c4O)C(=O)O[C@@H]3[C@@H](O)[C@@H]2O)cc1OC
REMARK SMILES IDX 9 1 10 2 11 3 12 4 13 5 27 6 14 7 30 8 26 9 28 10 15 11
REMARK SMILES IDX 22 12 24 13 16 14 19 15 25 16 17 17 31 18 29 20 23 22 20 24
REMARK SMILES IDX 21 25 18 26 7 28 8 29 6 30 32 31 5 32 33 33 4 34 3 35 34 36
REMARK SMILES IDX 35 37 2 38 1 39
REMARK H PARENT 31 19 29 21 23 23 18 27
REMARK Flexibility Score: inf
ROOT
ATOM      1  O   UNL     1     -11.633  10.651  21.164  1.00  0.00    -0.459 OA
ENDROOT
BRANCH   1   2
ATOM      2  C   UNL     1     -10.297  10.211  21.321  1.00  0.00     0.268 C 
BRANCH   2   3
ATOM      3  C   UNL     1      -9.993   9.182  20.236  1.00  0.00     0.188 C 
ATOM      4  O   UNL     1      -8.842   9.649  19.522  1.00  0.00    -0.360 OA
ATOM      5  C   UNL     1      -8.526   8.810  18.414  1.00  0.00     0.197 C 
ATOM      6  C   UNL     1      -8.123   7.432  18.922  1.00  0.00     0.241 C 
ATOM      7  C   UNL     1      -7.366   9.340  17.614  1.00  0.00     0.045 A 
ATOM      8  C   UNL     1      -9.734   7.787  20.818  1.00  0.00     0.179 C 
ATOM      9  O   UNL     1      -7.823   6.571  17.806  1.00  0.00    -0.453 OA
ATOM     10  C   UNL     1      -9.262   6.815  19.735  1.00  0.00     0.189 C 
ATOM     11  C   UNL     1      -6.603   8.432  16.863  1.00  0.00     0.073 A 
ATOM     12  C   UNL     1      -7.058  10.705  17.554  1.00  0.00     0.168 A 
ATOM     13  C   UNL     1      -6.952   6.989  16.848  1.00  0.00     0.339 C 
ATOM     14  C   UNL     1      -5.531   8.884  16.084  1.00  0.00     0.066 A 
ATOM     15  C   UNL     1      -5.986  11.152  16.780  1.00  0.00     0.203 A 
ATOM     16  O   UNL     1      -6.496   6.229  16.003  1.00  0.00    -0.246 OA
ATOM     17  C   UNL     1      -5.222  10.244  16.051  1.00  0.00     0.162 A 
BRANCH   8  18
ATOM     18  O   UNL     1     -10.926   7.260  21.394  1.00  0.00    -0.387 OA
ATOM     19  H   UNL     1     -11.664   7.463  20.795  1.00  0.00     0.211 HD
ENDBRANCH   8  18
BRANCH  10  20
ATOM     20  O   UNL     1      -8.780   5.620  20.352  1.00  0.00    -0.386 OA
ATOM     21  H   UNL     1      -8.302   5.104  19.680  1.00  0.00     0.211 HD
ENDBRANCH  10  20
BRANCH  12  22
ATOM     22  O   UNL     1      -7.805  11.637  18.215  1.00  0.00    -0.504 OA
ATOM     23  H   UNL     1      -7.305  11.991  18.967  1.00  0.00     0.293 HD
ENDBRANCH  12  22
BRANCH  15  24
ATOM     24  O   UNL     1      -5.689  12.482  16.728  1.00  0.00    -0.490 OA
ATOM     25  C   UNL     1      -6.299  13.241  15.687  1.00  0.00     0.278 C 
ENDBRANCH  15  24
BRANCH  17  26
ATOM     26  O   UNL     1      -4.176  10.671  15.289  1.00  0.00    -0.504 OA
ATOM     27  H   UNL     1      -3.915  11.562  15.578  1.00  0.00     0.293 HD
ENDBRANCH  17  26
ENDBRANCH   2   3
ENDBRANCH   1   2
BRANCH   1  28
ATOM     28  C   UNL     1     -12.202  10.429  19.944  1.00  0.00     0.338 C 
ATOM     29  O   UNL     1     -12.644   9.362  19.547  1.00  0.00    -0.246 OA
BRANCH  28  30
ATOM     30  C   UNL     1     -12.220  11.671  19.131  1.00  0.00     0.064 A 
ATOM     31  C   UNL     1     -11.021  12.251  18.714  1.00  0.00     0.066 A 
ATOM     32  C   UNL     1     -13.437  12.260  18.787  1.00  0.00     0.020 A 
ATOM     33  C   UNL     1     -11.039  13.418  17.951  1.00  0.00     0.161 A 
ATOM     34  C   UNL     1     -13.454  13.429  18.024  1.00  0.00     0.051 A 
ATOM     35  C   UNL     1     -12.256  14.007  17.606  1.00  0.00     0.160 A 
BRANCH  33  36
ATOM     36  O   UNL     1      -9.862  13.974  17.549  1.00  0.00    -0.493 OA
ATOM     37  C   UNL     1      -9.197  14.825  18.480  1.00  0.00     0.278 C 
ENDBRANCH  33  36
BRANCH  35  38
ATOM     38  O   UNL     1     -12.286  15.148  16.861  1.00  0.00    -0.493 OA
ATOM     39  C   UNL     1     -12.523  16.370  17.557  1.00  0.00     0.278 C 
ENDBRANCH  35  38
ENDBRANCH  28  30
ENDBRANCH   1  28
TORSDOF 11
ENDMDL
MODEL 9
REMARK VINA RESULT:    -7.900      4.037      9.194
REMARK INTER + INTRA:         -12.998
REMARK INTER:                 -11.997
REMARK INTRA:                  -1.000
REMARK UNBOUND:                -0.942
REMARK SMILES COc1ccc(C(=O)OC[C@H]2O[C@H]3c4c(cc(O)c(OC)c4O)C(=O)O[C@@H]3[C@@H](O)[C@@H]2O)cc1OC
REMARK SMILES IDX 9 1 10 2 11 3 12 4 13 5 27 6 14 7 30 8 26 9 28 10 15 11
REMARK SMILES IDX 22 12 24 13 16 14 19 15 25 16 17 17 31 18 29 20 23 22 20 24
REMARK SMILES IDX 21 25 18 26 7 28 8 29 6 30 32 31 5 32 33 33 4 34 3 35 34 36
REMARK SMILES IDX 35 37 2 38 1 39
REMARK H PARENT 31 19 29 21 23 23 18 27
REMARK Flexibility Score: inf
ROOT
ATOM      1  O   UNL     1      -8.003  12.379  16.450  1.00  0.00    -0.459 OA
ENDROOT
BRANCH   1   2
ATOM      2  C   UNL     1      -6.808  11.642  16.268  1.00  0.00     0.268 C 
BRANCH   2   3
ATOM      3  C   UNL     1      -6.742  10.552  17.333  1.00  0.00     0.188 C 
ATOM      4  O   UNL     1      -8.082  10.321  17.783  1.00  0.00    -0.360 OA
ATOM      5  C   UNL     1      -8.129   9.386  18.858  1.00  0.00     0.197 C 
ATOM      6  C   UNL     1      -7.655   8.025  18.364  1.00  0.00     0.241 C 
ATOM      7  C   UNL     1      -9.526   9.199  19.387  1.00  0.00     0.045 A 
ATOM      8  C   UNL     1      -6.125   9.255  16.796  1.00  0.00     0.179 C 
ATOM      9  O   UNL     1      -7.679   7.079  19.452  1.00  0.00    -0.453 OA
ATOM     10  C   UNL     1      -6.229   8.127  17.824  1.00  0.00     0.189 C 
ATOM     11  C   UNL     1      -9.842   7.992  20.030  1.00  0.00     0.073 A 
ATOM     12  C   UNL     1     -10.499  10.204  19.306  1.00  0.00     0.168 A 
ATOM     13  C   UNL     1      -8.809   6.938  20.198  1.00  0.00     0.339 C 
ATOM     14  C   UNL     1     -11.120   7.786  20.560  1.00  0.00     0.066 A 
ATOM     15  C   UNL     1     -11.775   9.994  19.831  1.00  0.00     0.203 A 
ATOM     16  O   UNL     1      -8.962   6.011  20.983  1.00  0.00    -0.246 OA
ATOM     17  C   UNL     1     -12.086   8.786  20.453  1.00  0.00     0.162 A 
BRANCH   8  18
ATOM     18  O   UNL     1      -4.747   9.449  16.492  1.00  0.00    -0.387 OA
ATOM     19  H   UNL     1      -4.652  10.321  16.072  1.00  0.00     0.211 HD
ENDBRANCH   8  18
BRANCH  10  20
ATOM     20  O   UNL     1      -5.894   6.887  17.198  1.00  0.00    -0.386 OA
ATOM     21  H   UNL     1      -5.739   7.057  16.253  1.00  0.00     0.211 HD
ENDBRANCH  10  20
BRANCH  12  22
ATOM     22  O   UNL     1     -10.227  11.419  18.746  1.00  0.00    -0.504 OA
ATOM     23  H   UNL     1     -10.964  11.695  18.177  1.00  0.00     0.293 HD
ENDBRANCH  12  22
BRANCH  15  24
ATOM     24  O   UNL     1     -12.719  10.974  19.746  1.00  0.00    -0.490 OA
ATOM     25  C   UNL     1     -12.825  11.868  20.852  1.00  0.00     0.278 C 
ENDBRANCH  15  24
BRANCH  17  26
ATOM     26  O   UNL     1     -13.328   8.573  20.972  1.00  0.00    -0.504 OA
ATOM     27  H   UNL     1     -13.308   8.750  21.927  1.00  0.00     0.293 HD
ENDBRANCH  17  26
ENDBRANCH   2   3
ENDBRANCH   1   2
BRANCH   1  28
ATOM     28  C   UNL     1      -7.968  13.690  16.072  1.00  0.00     0.338 C 
ATOM     29  O   UNL     1      -6.959  14.349  15.878  1.00  0.00    -0.246 OA
BRANCH  28  30
ATOM     30  C   UNL     1      -9.340  14.235  15.920  1.00  0.00     0.064 A 
ATOM     31  C   UNL     1      -9.838  14.530  14.650  1.00  0.00     0.066 A 
ATOM     32  C   UNL     1     -10.132  14.454  17.047  1.00  0.00     0.020 A 
ATOM     33  C   UNL     1     -11.127  15.043  14.508  1.00  0.00     0.161 A 
ATOM     34  C   UNL     1     -11.422  14.968  16.904  1.00  0.00     0.051 A 
ATOM     35  C   UNL     1     -11.919  15.261  15.635  1.00  0.00     0.160 A 
BRANCH  33  36
ATOM     36  O   UNL     1     -11.602  15.325  13.262  1.00  0.00    -0.493 OA
ATOM     37  C   UNL     1     -11.018  16.436  12.584  1.00  0.00     0.278 C 
ENDBRANCH  33  36
BRANCH  35  38
ATOM     38  O   UNL     1     -13.180  15.761  15.509  1.00  0.00    -0.493 OA
ATOM     39  C   UNL     1     -14.106  15.451  16.548  1.00  0.00     0.278 C 
ENDBRANCH  35  38
ENDBRANCH  28  30
ENDBRANCH   1  28
TORSDOF 11
ENDMDL
