@<TRIPOS>MOLECULE
result_docking1_4jir_Aldolase_bergenin_triazol
 33 36 0 0 0
SMALL
GASTEIGER

@<TRIPOS>ATOM
      1  C1        -8.7090    9.9610   19.3880 C.ar    1  RES1        0.0526
      2  C2        -8.0660    8.8690   18.8950 C.ar    1  RES1        0.0956
      3  C3        -6.8860    9.0000   18.2200 C.ar    1  RES1        0.1185
      4  C4        -6.3400   10.2440   18.0980 C.ar    1  RES1        0.1866
      5  C5        -6.9780   11.3190   18.6000 C.ar    1  RES1        0.2030
      6  C6        -8.1580   11.1850   19.2310 C.ar    1  RES1        0.1692
      7  C15      -10.0480    9.8260   20.0560 C.3     1  RES1        0.1831
      8  C16      -10.8360    8.6530   19.4730 C.3     1  RES1        0.2293
      9  O17      -10.0230    7.4760   19.2600 O.3     1  RES1       -0.4436
     10  C18       -8.6690    7.5440   19.2190 C.2     1  RES1        0.3425
     11  O19       -9.8450    9.6470   21.4580 O.3     1  RES1       -0.3453
     12  C20      -11.0640    9.7490   22.2230 C.3     1  RES1        0.1740
     13  C21      -12.3190    9.3530   21.4170 C.3     1  RES1        0.1704
     14  C22      -11.9510    8.2250   20.4460 C.3     1  RES1        0.1826
     15  O27       -8.0050    6.5330   19.4060 O.2     1  RES1       -0.2449
     16  N10       -6.1510    7.7780   17.5830 N.pl3   1  RES1       -0.1653
     17  N11       -4.8680    7.4690   17.9390 N.2     1  RES1       -0.1495
     18  C12       -4.3390    6.8330   16.8400 C.2     1  RES1        0.2189
     19  N13       -5.1490    6.8610   15.7410 N.2     1  RES1       -0.2028
     20  C14       -6.2900    7.4890   16.1450 C.2     1  RES1        0.1902
     21  O8        -5.1320   10.4850   17.4490 O.3     1  RES1       -0.5019
     22  O7        -6.4260   12.5900   18.4620 O.3     1  RES1       -0.5009
     23  O9        -8.7910   12.3160   19.7290 O.3     1  RES1       -0.5030
     24  O24      -13.1260    7.8350   19.7170 O.3     1  RES1       -0.3785
     25  C25      -11.1790   11.1520   22.8360 C.3     1  RES1        0.1692
     26  O26      -12.4370   11.7570   22.5400 O.3     1  RES1       -0.3794
     27  O23      -13.3570    8.9080   22.2960 O.3     1  RES1       -0.3794
     28 H          -4.6473    9.7723   17.0814 H       1  RES1        0.2924
     29 H          -5.6045   12.6990   18.0247 H       1  RES1        0.2924
     30 H          -8.4005   13.1600   19.6148 H       1  RES1        0.2923
     31 H         -12.9015    7.1211   19.0999 H       1  RES1        0.2106
     32 H         -12.4741   12.6391   22.9418 H       1  RES1        0.2105
     33 H         -14.1382    8.6629   21.7758 H       1  RES1        0.2105
@<TRIPOS>BOND
     1    19    20    2
     2    19    18    1
     3    20    16    1
     4    18    17    2
     5    21     4    1
     6    16    17    1
     7    16     3    1
     8     4     3   ar
     9     4     5   ar
    10     3     2   ar
    11    22     5    1
    12     5     6   ar
    13     2    10    1
    14     2     1   ar
    15    10     9    1
    16    10    15    2
    17     6     1   ar
    18     6    23    1
    19     9     8    1
    20     1     7    1
    21     8     7    1
    22     8    14    1
    23    24    14    1
    24     7    11    1
    25    14    13    1
    26    13    12    1
    27    13    27    1
    28    11    12    1
    29    12    25    1
    30    26    25    1
    31    21    28    1
    32    22    29    1
    33    23    30    1
    34    24    31    1
    35    26    32    1
    36    27    33    1
