MODEL 1
REMARK VINA RESULT:    -8.671      0.000      0.000
REMARK INTER + INTRA:         -13.783
REMARK INTER:                 -12.726
REMARK INTRA:                  -1.057
REMARK UNBOUND:                -1.057
REMARK  10 active torsions:
REMARK  status: ('A' for Active; 'I' for Inactive)
REMARK    1  A    between atoms: O1_2  and  C2_3 
REMARK    2  A    between atoms: C3_4  and  O2_5 
REMARK    3  A    between atoms: C21_33  and  O2_5 
REMARK    4  A    between atoms: C8_12  and  O5_13 
REMARK    5  A    between atoms: C9_14  and  O6_15 
REMARK    6  A    between atoms: C10_16  and  C11_17 
REMARK    7  A    between atoms: C11_17  and  O7_18 
REMARK    8  A    between atoms: C14_22  and  O9_23 
REMARK    9  A    between atoms: C16_25  and  C21_33 
REMARK   10  A    between atoms: C20_29  and  N1_30 
ROOT
ATOM      1  C2  non d   1      -6.415   9.530  16.602  0.00  0.00     0.136 A 
ATOM      2  C3  non d   1      -7.304   9.482  17.623  0.00  0.00     0.116 A 
ATOM      3  C4  non d   1      -7.270  10.415  18.594  0.00  0.00     0.058 A 
ATOM      4  C5  non d   1      -6.360  11.407  18.550  0.00  0.00     0.054 A 
ATOM      5  C6  non d   1      -6.407  12.419  19.652  0.00  0.00     0.294 C 
ATOM      6  O3  non d   1      -7.367  12.536  20.404  0.00  0.00    -0.259 OA
ATOM      7  O4  non d   1      -5.325  13.232  19.777  0.00  0.00    -0.306 OA
ATOM      8  C7  non d   1      -4.132  12.900  19.045  0.00  0.00     0.197 C 
ATOM      9  C8  non d   1      -3.172  14.084  19.130  0.00  0.00     0.181 C 
ATOM     10  C9  non d   1      -1.924  13.827  18.279  0.00  0.00     0.180 C 
ATOM     11  C10 non d   1      -2.321  13.411  16.852  0.00  0.00     0.177 C 
ATOM     12  O8  non d   1      -3.256  12.308  16.864  0.00  0.00    -0.368 OA
ATOM     13  C12 non d   1      -4.458  12.622  17.579  0.00  0.00     0.191 C 
ATOM     14  C13 non d   1      -5.459  11.479  17.537  0.00  0.00     0.026 A 
ATOM     15  C14 non d   1      -5.483  10.521  16.567  0.00  0.00     0.112 A 
ENDROOT
BRANCH   2  16
ATOM     16  O2  non d   1      -8.250   8.439  17.704  0.00  0.00    -0.272 OA
BRANCH  16  17
ATOM     17  C21 non d   1      -7.932   7.490  18.637  0.00  0.00     0.298 C 
ATOM     18  O12 non d   1      -7.009   6.686  18.583  0.00  0.00    -0.259 OA
BRANCH  17  19
ATOM     19  C16 non d   1      -8.919   7.528  19.761  0.00  0.00     0.042 A 
ATOM     20  C15 non d   1     -10.114   8.124  19.532  0.00  0.00     0.053 A 
ATOM     21  C20 non d   1     -11.024   8.163  20.528  0.00  0.00     0.103 A 
ATOM     22  C19 non d   1     -10.773   7.620  21.739  0.00  0.00     0.036 A 
ATOM     23  C18 non d   1      -9.581   7.024  21.954  0.00  0.00     0.003 A 
ATOM     24  C17 non d   1      -8.659   6.977  20.969  0.00  0.00     0.018 A 
BRANCH  21  25
ATOM     25  N1  non d   1     -12.319   8.812  20.293  0.00  0.00    -0.116 N 
ATOM     26  O10 non d   1     -13.266   8.506  21.033  0.00  0.00    -0.532 OA
ATOM     27  O11 non d   1     -12.399   9.631  19.364  0.00  0.00    -0.532 OA
ENDBRANCH  21  25
ENDBRANCH  17  19
ENDBRANCH  16  17
ENDBRANCH   2  16
BRANCH   1  28
ATOM     28  O1  non d   1      -6.469   8.519  15.642  0.00  0.00    -0.351 OA
ATOM     29  C1  non d   1      -5.454   7.530  15.826  0.00  0.00     0.210 C 
ENDBRANCH   1  28
BRANCH  15  30
ATOM     30  O9  non d   1      -4.555  10.530  15.534  0.00  0.00    -0.357 OA
ATOM     31  H15 non d   1      -4.527   9.675  15.066  0.00  0.00     0.217 HD
ENDBRANCH  15  30
BRANCH  11  32
ATOM     32  C11 non d   1      -1.098  12.965  16.040  0.00  0.00     0.198 C 
BRANCH  32  33
ATOM     33  O7  non d   1      -0.302  14.091  15.667  0.00  0.00    -0.398 OA
ATOM     34  H13 non d   1       0.070  13.890  14.788  0.00  0.00     0.209 HD
ENDBRANCH  32  33
ENDBRANCH  11  32
BRANCH   9  35
ATOM     35  O5  non d   1      -2.762  14.307  20.488  0.00  0.00    -0.390 OA
ATOM     36  H7  non d   1      -2.901  13.465  20.965  0.00  0.00     0.210 HD
ENDBRANCH   9  35
BRANCH  10  37
ATOM     37  O6  non d   1      -1.142  15.023  18.250  0.00  0.00    -0.390 OA
ATOM     38  H9  non d   1      -1.734  15.728  18.583  0.00  0.00     0.210 HD
ENDBRANCH  10  37
TORSDOF 10
ENDMDL
MODEL 2
REMARK VINA RESULT:    -8.561      4.028      8.239
REMARK INTER + INTRA:         -13.622
REMARK INTER:                 -12.826
REMARK INTRA:                  -0.796
REMARK UNBOUND:                -1.057
REMARK  10 active torsions:
REMARK  status: ('A' for Active; 'I' for Inactive)
REMARK    1  A    between atoms: O1_2  and  C2_3 
REMARK    2  A    between atoms: C3_4  and  O2_5 
REMARK    3  A    between atoms: C21_33  and  O2_5 
REMARK    4  A    between atoms: C8_12  and  O5_13 
REMARK    5  A    between atoms: C9_14  and  O6_15 
REMARK    6  A    between atoms: C10_16  and  C11_17 
REMARK    7  A    between atoms: C11_17  and  O7_18 
REMARK    8  A    between atoms: C14_22  and  O9_23 
REMARK    9  A    between atoms: C16_25  and  C21_33 
REMARK   10  A    between atoms: C20_29  and  N1_30 
ROOT
ATOM      1  C2  non d   1      -6.508   8.991  18.436  0.00  0.00     0.136 A 
ATOM      2  C3  non d   1      -6.247   7.679  18.654  0.00  0.00     0.116 A 
ATOM      3  C4  non d   1      -7.130   6.916  19.325  0.00  0.00     0.058 A 
ATOM      4  C5  non d   1      -8.283   7.448  19.775  0.00  0.00     0.054 A 
ATOM      5  C6  non d   1      -9.223   6.525  20.487  0.00  0.00     0.294 C 
ATOM      6  O3  non d   1      -9.119   5.306  20.437  0.00  0.00    -0.259 OA
ATOM      7  O4  non d   1     -10.228   7.109  21.192  0.00  0.00    -0.306 OA
ATOM      8  C7  non d   1     -10.166   8.526  21.427  0.00  0.00     0.197 C 
ATOM      9  C8  non d   1     -11.512   8.979  21.988  0.00  0.00     0.181 C 
ATOM     10  C9  non d   1     -11.539  10.501  22.159  0.00  0.00     0.180 C 
ATOM     11  C10 non d   1     -11.107  11.198  20.858  0.00  0.00     0.177 C 
ATOM     12  O8  non d   1      -9.843  10.687  20.379  0.00  0.00    -0.368 OA
ATOM     13  C12 non d   1      -9.886   9.276  20.127  0.00  0.00     0.191 C 
ATOM     14  C13 non d   1      -8.570   8.759  19.569  0.00  0.00     0.026 A 
ATOM     15  C14 non d   1      -7.665   9.533  18.907  0.00  0.00     0.112 A 
ENDROOT
BRANCH   2  16
ATOM     16  O2  non d   1      -5.035   7.105  18.215  0.00  0.00    -0.272 OA
BRANCH  16  17
ATOM     17  C21 non d   1      -5.211   6.085  17.321  0.00  0.00     0.298 C 
ATOM     18  O12 non d   1      -6.180   5.903  16.594  0.00  0.00    -0.259 OA
BRANCH  17  19
ATOM     19  C16 non d   1      -4.041   5.154  17.373  0.00  0.00     0.042 A 
ATOM     20  C15 non d   1      -4.118   4.001  16.665  0.00  0.00     0.053 A 
ATOM     21  C20 non d   1      -3.071   3.150  16.690  0.00  0.00     0.103 A 
ATOM     22  C19 non d   1      -1.954   3.422  17.398  0.00  0.00     0.036 A 
ATOM     23  C18 non d   1      -1.886   4.575  18.096  0.00  0.00     0.003 A 
ATOM     24  C17 non d   1      -2.924   5.438  18.083  0.00  0.00     0.018 A 
BRANCH  21  25
ATOM     25  N1  non d   1      -3.147   1.896  15.931  0.00  0.00    -0.116 N 
ATOM     26  O10 non d   1      -2.159   1.147  15.945  0.00  0.00    -0.532 OA
ATOM     27  O11 non d   1      -4.195   1.653  15.314  0.00  0.00    -0.532 OA
ENDBRANCH  21  25
ENDBRANCH  17  19
ENDBRANCH  16  17
ENDBRANCH   2  16
BRANCH   1  28
ATOM     28  O1  non d   1      -5.544   9.746  17.769  0.00  0.00    -0.351 OA
ATOM     29  C1  non d   1      -5.744   9.769  16.354  0.00  0.00     0.210 C 
ENDBRANCH   1  28
BRANCH  15  30
ATOM     30  O9  non d   1      -7.896  10.888  18.709  0.00  0.00    -0.357 OA
ATOM     31  H15 non d   1      -7.932  11.114  17.760  0.00  0.00     0.217 HD
ENDBRANCH  15  30
BRANCH  11  32
ATOM     32  C11 non d   1     -10.943  12.710  21.061  0.00  0.00     0.198 C 
BRANCH  32  33
ATOM     33  O7  non d   1     -11.080  13.051  22.442  0.00  0.00    -0.398 OA
ATOM     34  H13 non d   1     -10.794  13.979  22.528  0.00  0.00     0.209 HD
ENDBRANCH  32  33
ENDBRANCH  11  32
BRANCH   9  35
ATOM     35  O5  non d   1     -11.759   8.370  23.265  0.00  0.00    -0.390 OA
ATOM     36  H7  non d   1     -12.726   8.392  23.405  0.00  0.00     0.210 HD
ENDBRANCH   9  35
BRANCH  10  37
ATOM     37  O6  non d   1     -12.866  10.893  22.519  0.00  0.00    -0.390 OA
ATOM     38  H9  non d   1     -13.332  10.060  22.737  0.00  0.00     0.210 HD
ENDBRANCH  10  37
TORSDOF 10
ENDMDL
MODEL 3
REMARK VINA RESULT:    -8.537      1.333      1.654
REMARK INTER + INTRA:         -13.587
REMARK INTER:                 -12.425
REMARK INTRA:                  -1.162
REMARK UNBOUND:                -1.057
REMARK  10 active torsions:
REMARK  status: ('A' for Active; 'I' for Inactive)
REMARK    1  A    between atoms: O1_2  and  C2_3 
REMARK    2  A    between atoms: C3_4  and  O2_5 
REMARK    3  A    between atoms: C21_33  and  O2_5 
REMARK    4  A    between atoms: C8_12  and  O5_13 
REMARK    5  A    between atoms: C9_14  and  O6_15 
REMARK    6  A    between atoms: C10_16  and  C11_17 
REMARK    7  A    between atoms: C11_17  and  O7_18 
REMARK    8  A    between atoms: C14_22  and  O9_23 
REMARK    9  A    between atoms: C16_25  and  C21_33 
REMARK   10  A    between atoms: C20_29  and  N1_30 
ROOT
ATOM      1  C2  non d   1      -6.438   9.567  16.712  0.00  0.00     0.136 A 
ATOM      2  C3  non d   1      -7.339   9.551  17.724  0.00  0.00     0.116 A 
ATOM      3  C4  non d   1      -7.312  10.510  18.670  0.00  0.00     0.058 A 
ATOM      4  C5  non d   1      -6.396  11.496  18.610  0.00  0.00     0.054 A 
ATOM      5  C6  non d   1      -6.451  12.537  19.684  0.00  0.00     0.294 C 
ATOM      6  O3  non d   1      -7.418  12.679  20.421  0.00  0.00    -0.259 OA
ATOM      7  O4  non d   1      -5.366  13.349  19.798  0.00  0.00    -0.306 OA
ATOM      8  C7  non d   1      -4.166  12.991  19.089  0.00  0.00     0.197 C 
ATOM      9  C8  non d   1      -3.201  14.173  19.153  0.00  0.00     0.181 C 
ATOM     10  C9  non d   1      -1.945  13.887  18.324  0.00  0.00     0.180 C 
ATOM     11  C10 non d   1      -2.328  13.434  16.905  0.00  0.00     0.177 C 
ATOM     12  O8  non d   1      -3.269  12.336  16.936  0.00  0.00    -0.368 OA
ATOM     13  C12 non d   1      -4.477  12.675  17.628  0.00  0.00     0.191 C 
ATOM     14  C13 non d   1      -5.483  11.536  17.605  0.00  0.00     0.026 A 
ATOM     15  C14 non d   1      -5.501  10.553  16.662  0.00  0.00     0.112 A 
ENDROOT
BRANCH   2  16
ATOM     16  O2  non d   1      -8.291   8.515  17.823  0.00  0.00    -0.272 OA
BRANCH  16  17
ATOM     17  C21 non d   1      -8.163   7.767  18.962  0.00  0.00     0.298 C 
ATOM     18  O12 non d   1      -7.224   7.041  19.262  0.00  0.00    -0.259 OA
BRANCH  17  19
ATOM     19  C16 non d   1      -9.384   7.920  19.813  0.00  0.00     0.042 A 
ATOM     20  C15 non d   1      -9.299   7.549  21.113  0.00  0.00     0.053 A 
ATOM     21  C20 non d   1     -10.386   7.686  21.902  0.00  0.00     0.103 A 
ATOM     22  C19 non d   1     -11.547   8.187  21.428  0.00  0.00     0.036 A 
ATOM     23  C18 non d   1     -11.619   8.558  20.132  0.00  0.00     0.003 A 
ATOM     24  C17 non d   1     -10.542   8.427  19.328  0.00  0.00     0.018 A 
BRANCH  21  25
ATOM     25  N1  non d   1     -10.306   7.280  23.310  0.00  0.00    -0.116 N 
ATOM     26  O10 non d   1     -10.436   6.077  23.577  0.00  0.00    -0.532 OA
ATOM     27  O11 non d   1     -10.116   8.165  24.159  0.00  0.00    -0.532 OA
ENDBRANCH  21  25
ENDBRANCH  17  19
ENDBRANCH  16  17
ENDBRANCH   2  16
BRANCH   1  28
ATOM     28  O1  non d   1      -6.487   8.530  15.780  0.00  0.00    -0.351 OA
ATOM     29  C1  non d   1      -5.591   7.463  16.096  0.00  0.00     0.210 C 
ENDBRANCH   1  28
BRANCH  15  30
ATOM     30  O9  non d   1      -4.562  10.529  15.640  0.00  0.00    -0.357 OA
ATOM     31  H15 non d   1      -4.010   9.725  15.674  0.00  0.00     0.217 HD
ENDBRANCH  15  30
BRANCH  11  32
ATOM     32  C11 non d   1      -1.099  12.960  16.119  0.00  0.00     0.198 C 
BRANCH  32  33
ATOM     33  O7  non d   1      -0.273  14.069  15.757  0.00  0.00    -0.398 OA
ATOM     34  H13 non d   1      -0.812  14.638  15.176  0.00  0.00     0.209 HD
ENDBRANCH  32  33
ENDBRANCH  11  32
BRANCH   9  35
ATOM     35  O5  non d   1      -2.805  14.430  20.510  0.00  0.00    -0.390 OA
ATOM     36  H7  non d   1      -3.593  14.274  21.066  0.00  0.00     0.210 HD
ENDBRANCH   9  35
BRANCH  10  37
ATOM     37  O6  non d   1      -1.157  15.078  18.271  0.00  0.00    -0.390 OA
ATOM     38  H9  non d   1      -0.628  15.075  19.095  0.00  0.00     0.210 HD
ENDBRANCH  10  37
TORSDOF 10
ENDMDL
MODEL 4
REMARK VINA RESULT:    -8.302      4.535      9.284
REMARK INTER + INTRA:         -13.242
REMARK INTER:                 -12.540
REMARK INTRA:                  -0.701
REMARK UNBOUND:                -1.057
REMARK  10 active torsions:
REMARK  status: ('A' for Active; 'I' for Inactive)
REMARK    1  A    between atoms: O1_2  and  C2_3 
REMARK    2  A    between atoms: C3_4  and  O2_5 
REMARK    3  A    between atoms: C21_33  and  O2_5 
REMARK    4  A    between atoms: C8_12  and  O5_13 
REMARK    5  A    between atoms: C9_14  and  O6_15 
REMARK    6  A    between atoms: C10_16  and  C11_17 
REMARK    7  A    between atoms: C11_17  and  O7_18 
REMARK    8  A    between atoms: C14_22  and  O9_23 
REMARK    9  A    between atoms: C16_25  and  C21_33 
REMARK   10  A    between atoms: C20_29  and  N1_30 
ROOT
ATOM      1  C2  non d   1     -10.177   7.486  21.980  0.00  0.00     0.136 A 
ATOM      2  C3  non d   1     -10.672   8.565  21.328  0.00  0.00     0.116 A 
ATOM      3  C4  non d   1     -11.036   9.664  22.016  0.00  0.00     0.058 A 
ATOM      4  C5  non d   1     -10.900   9.701  23.356  0.00  0.00     0.054 A 
ATOM      5  C6  non d   1     -11.302  10.970  24.042  0.00  0.00     0.294 C 
ATOM      6  O3  non d   1     -11.478  12.022  23.441  0.00  0.00    -0.259 OA
ATOM      7  O4  non d   1     -11.448  10.909  25.393  0.00  0.00    -0.306 OA
ATOM      8  C7  non d   1     -11.476   9.615  26.020  0.00  0.00     0.197 C 
ATOM      9  C8  non d   1     -11.375   9.812  27.531  0.00  0.00     0.181 C 
ATOM     10  C9  non d   1     -11.294   8.459  28.245  0.00  0.00     0.180 C 
ATOM     11  C10 non d   1     -10.189   7.587  27.626  0.00  0.00     0.177 C 
ATOM     12  O8  non d   1     -10.341   7.481  26.192  0.00  0.00    -0.368 OA
ATOM     13  C12 non d   1     -10.304   8.760  25.545  0.00  0.00     0.191 C 
ATOM     14  C13 non d   1     -10.405   8.634  24.034  0.00  0.00     0.026 A 
ATOM     15  C14 non d   1     -10.057   7.517  23.336  0.00  0.00     0.112 A 
ENDROOT
BRANCH   2  16
ATOM     16  O2  non d   1     -10.848   8.541  19.928  0.00  0.00    -0.272 OA
BRANCH  16  17
ATOM     17  C21 non d   1     -10.344   9.646  19.299  0.00  0.00     0.298 C 
ATOM     18  O12 non d   1     -10.957  10.661  18.991  0.00  0.00    -0.259 OA
BRANCH  17  19
ATOM     19  C16 non d   1      -8.897   9.436  18.980  0.00  0.00     0.042 A 
ATOM     20  C15 non d   1      -8.554   8.305  18.317  0.00  0.00     0.053 A 
ATOM     21  C20 non d   1      -7.256   8.098  18.011  0.00  0.00     0.103 A 
ATOM     22  C19 non d   1      -6.298   8.990  18.344  0.00  0.00     0.036 A 
ATOM     23  C18 non d   1      -6.652  10.116  18.999  0.00  0.00     0.003 A 
ATOM     24  C17 non d   1      -7.946  10.338  19.315  0.00  0.00     0.018 A 
BRANCH  21  25
ATOM     25  N1  non d   1      -6.872   6.873  17.299  0.00  0.00    -0.116 N 
ATOM     26  O10 non d   1      -6.174   6.044  17.901  0.00  0.00    -0.532 OA
ATOM     27  O11 non d   1      -7.265   6.733  16.130  0.00  0.00    -0.532 OA
ENDBRANCH  21  25
ENDBRANCH  17  19
ENDBRANCH  16  17
ENDBRANCH   2  16
BRANCH   1  28
ATOM     28  O1  non d   1      -9.851   6.360  21.224  0.00  0.00    -0.351 OA
ATOM     29  C1  non d   1      -8.480   6.346  20.821  0.00  0.00     0.210 C 
ENDBRANCH   1  28
BRANCH  15  30
ATOM     30  O9  non d   1      -9.586   6.386  23.990  0.00  0.00    -0.357 OA
ATOM     31  H15 non d   1     -10.187   6.105  24.705  0.00  0.00     0.217 HD
ENDBRANCH  15  30
BRANCH  11  32
ATOM     32  C11 non d   1     -10.216   6.163  28.195  0.00  0.00     0.198 C 
BRANCH  32  33
ATOM     33  O7  non d   1      -9.391   5.293  27.418  0.00  0.00    -0.398 OA
ATOM     34  H13 non d   1      -9.541   4.391  27.757  0.00  0.00     0.209 HD
ENDBRANCH  32  33
ENDBRANCH  11  32
BRANCH   9  35
ATOM     35  O5  non d   1     -12.520  10.524  28.026  0.00  0.00    -0.390 OA
ATOM     36  H7  non d   1     -12.196  11.121  28.729  0.00  0.00     0.210 HD
ENDBRANCH   9  35
BRANCH  10  37
ATOM     37  O6  non d   1     -11.027   8.694  29.630  0.00  0.00    -0.390 OA
ATOM     38  H9  non d   1     -11.233   7.849  30.081  0.00  0.00     0.210 HD
ENDBRANCH  10  37
TORSDOF 10
ENDMDL
MODEL 5
REMARK VINA RESULT:    -8.296      2.358      2.680
REMARK INTER + INTRA:         -13.232
REMARK INTER:                 -12.192
REMARK INTRA:                  -1.040
REMARK UNBOUND:                -1.057
REMARK  10 active torsions:
REMARK  status: ('A' for Active; 'I' for Inactive)
REMARK    1  A    between atoms: O1_2  and  C2_3 
REMARK    2  A    between atoms: C3_4  and  O2_5 
REMARK    3  A    between atoms: C21_33  and  O2_5 
REMARK    4  A    between atoms: C8_12  and  O5_13 
REMARK    5  A    between atoms: C9_14  and  O6_15 
REMARK    6  A    between atoms: C10_16  and  C11_17 
REMARK    7  A    between atoms: C11_17  and  O7_18 
REMARK    8  A    between atoms: C14_22  and  O9_23 
REMARK    9  A    between atoms: C16_25  and  C21_33 
REMARK   10  A    between atoms: C20_29  and  N1_30 
ROOT
ATOM      1  C2  non d   1      -5.640   9.690  16.893  0.00  0.00     0.136 A 
ATOM      2  C3  non d   1      -6.707   9.524  17.711  0.00  0.00     0.116 A 
ATOM      3  C4  non d   1      -7.589  10.526  17.885  0.00  0.00     0.058 A 
ATOM      4  C5  non d   1      -7.424  11.696  17.237  0.00  0.00     0.054 A 
ATOM      5  C6  non d   1      -8.464  12.748  17.463  0.00  0.00     0.294 C 
ATOM      6  O3  non d   1      -9.553  12.506  17.968  0.00  0.00    -0.259 OA
ATOM      7  O4  non d   1      -8.150  14.008  17.060  0.00  0.00    -0.306 OA
ATOM      8  C7  non d   1      -6.785  14.293  16.707  0.00  0.00     0.197 C 
ATOM      9  C8  non d   1      -6.739  15.666  16.040  0.00  0.00     0.181 C 
ATOM     10  C9  non d   1      -5.323  15.977  15.547  0.00  0.00     0.180 C 
ATOM     11  C10 non d   1      -4.782  14.819  14.692  0.00  0.00     0.177 C 
ATOM     12  O8  non d   1      -4.894  13.554  15.384  0.00  0.00    -0.368 OA
ATOM     13  C12 non d   1      -6.249  13.245  15.735  0.00  0.00     0.191 C 
ATOM     14  C13 non d   1      -6.364  11.887  16.410  0.00  0.00     0.026 A 
ATOM     15  C14 non d   1      -5.463  10.878  16.253  0.00  0.00     0.112 A 
ENDROOT
BRANCH   2  16
ATOM     16  O2  non d   1      -6.888   8.317  18.420  0.00  0.00    -0.272 OA
BRANCH  16  17
ATOM     17  C21 non d   1      -8.061   7.682  18.119  0.00  0.00     0.298 C 
ATOM     18  O12 non d   1      -8.410   7.264  17.022  0.00  0.00    -0.259 OA
BRANCH  17  19
ATOM     19  C16 non d   1      -8.923   7.595  19.339  0.00  0.00     0.042 A 
ATOM     20  C15 non d   1     -10.137   8.195  19.300  0.00  0.00     0.053 A 
ATOM     21  C20 non d   1     -10.934   8.122  20.386  0.00  0.00     0.103 A 
ATOM     22  C19 non d   1     -10.554   7.463  21.502  0.00  0.00     0.036 A 
ATOM     23  C18 non d   1      -9.344   6.865  21.528  0.00  0.00     0.003 A 
ATOM     24  C17 non d   1      -8.533   6.929  20.451  0.00  0.00     0.018 A 
BRANCH  21  25
ATOM     25  N1  non d   1     -12.249   8.774  20.357  0.00  0.00    -0.116 N 
ATOM     26  O10 non d   1     -12.496   9.544  19.416  0.00  0.00    -0.532 OA
ATOM     27  O11 non d   1     -13.043   8.524  21.277  0.00  0.00    -0.532 OA
ENDBRANCH  21  25
ENDBRANCH  17  19
ENDBRANCH  16  17
ENDBRANCH   2  16
BRANCH   1  28
ATOM     28  O1  non d   1      -4.736   8.634  16.777  0.00  0.00    -0.351 OA
ATOM     29  C1  non d   1      -5.116   7.690  15.774  0.00  0.00     0.210 C 
ENDBRANCH   1  28
BRANCH  15  30
ATOM     30  O9  non d   1      -4.342  11.042  15.449  0.00  0.00    -0.357 OA
ATOM     31  H15 non d   1      -3.653  11.572  15.893  0.00  0.00     0.217 HD
ENDBRANCH  15  30
BRANCH  11  32
ATOM     32  C11 non d   1      -3.301  15.022  14.348  0.00  0.00     0.198 C 
BRANCH  32  33
ATOM     33  O7  non d   1      -2.524  13.905  14.784  0.00  0.00    -0.398 OA
ATOM     34  H13 non d   1      -2.661  13.830  15.746  0.00  0.00     0.209 HD
ENDBRANCH  32  33
ENDBRANCH  11  32
BRANCH   9  35
ATOM     35  O5  non d   1      -7.139  16.691  16.963  0.00  0.00    -0.390 OA
ATOM     36  H7  non d   1      -7.564  17.394  16.435  0.00  0.00     0.210 HD
ENDBRANCH   9  35
BRANCH  10  37
ATOM     37  O6  non d   1      -5.364  17.184  14.782  0.00  0.00    -0.390 OA
ATOM     38  H9  non d   1      -5.032  17.883  15.382  0.00  0.00     0.210 HD
ENDBRANCH  10  37
TORSDOF 10
ENDMDL
MODEL 6
REMARK VINA RESULT:    -8.203      2.730      5.185
REMARK INTER + INTRA:         -13.096
REMARK INTER:                 -12.320
REMARK INTRA:                  -0.776
REMARK UNBOUND:                -1.057
REMARK  10 active torsions:
REMARK  status: ('A' for Active; 'I' for Inactive)
REMARK    1  A    between atoms: O1_2  and  C2_3 
REMARK    2  A    between atoms: C3_4  and  O2_5 
REMARK    3  A    between atoms: C21_33  and  O2_5 
REMARK    4  A    between atoms: C8_12  and  O5_13 
REMARK    5  A    between atoms: C9_14  and  O6_15 
REMARK    6  A    between atoms: C10_16  and  C11_17 
REMARK    7  A    between atoms: C11_17  and  O7_18 
REMARK    8  A    between atoms: C14_22  and  O9_23 
REMARK    9  A    between atoms: C16_25  and  C21_33 
REMARK   10  A    between atoms: C20_29  and  N1_30 
ROOT
ATOM      1  C2  non d   1     -10.549  11.733  19.278  0.00  0.00     0.136 A 
ATOM      2  C3  non d   1     -11.009  10.511  19.642  0.00  0.00     0.116 A 
ATOM      3  C4  non d   1     -10.240   9.420  19.467  0.00  0.00     0.058 A 
ATOM      4  C5  non d   1      -9.005   9.537  18.940  0.00  0.00     0.054 A 
ATOM      5  C6  non d   1      -8.204   8.279  18.805  0.00  0.00     0.294 C 
ATOM      6  O3  non d   1      -8.501   7.240  19.380  0.00  0.00    -0.259 OA
ATOM      7  O4  non d   1      -7.101   8.345  18.013  0.00  0.00    -0.306 OA
ATOM      8  C7  non d   1      -6.932   9.497  17.169  0.00  0.00     0.197 C 
ATOM      9  C8  non d   1      -5.517   9.468  16.596  0.00  0.00     0.181 C 
ATOM     10  C9  non d   1      -5.245  10.730  15.771  0.00  0.00     0.180 C 
ATOM     11  C10 non d   1      -5.596  11.990  16.580  0.00  0.00     0.177 C 
ATOM     12  O8  non d   1      -6.938  11.919  17.113  0.00  0.00    -0.368 OA
ATOM     13  C12 non d   1      -7.125  10.783  17.968  0.00  0.00     0.191 C 
ATOM     14  C13 non d   1      -8.520  10.750  18.569  0.00  0.00     0.026 A 
ATOM     15  C14 non d   1      -9.310  11.849  18.729  0.00  0.00     0.112 A 
ENDROOT
BRANCH   2  16
ATOM     16  O2  non d   1     -12.307  10.360  20.172  0.00  0.00    -0.272 OA
BRANCH  16  17
ATOM     17  C21 non d   1     -12.485   9.181  20.843  0.00  0.00     0.298 C 
ATOM     18  O12 non d   1     -13.030   8.169  20.420  0.00  0.00    -0.259 OA
BRANCH  17  19
ATOM     19  C16 non d   1     -11.947   9.301  22.234  0.00  0.00     0.042 A 
ATOM     20  C15 non d   1     -11.380   8.202  22.789  0.00  0.00     0.053 A 
ATOM     21  C20 non d   1     -10.880   8.289  24.040  0.00  0.00     0.103 A 
ATOM     22  C19 non d   1     -10.927   9.440  24.743  0.00  0.00     0.036 A 
ATOM     23  C18 non d   1     -11.489  10.530  24.179  0.00  0.00     0.003 A 
ATOM     24  C17 non d   1     -11.996  10.461  22.929  0.00  0.00     0.018 A 
BRANCH  21  25
ATOM     25  N1  non d   1     -10.270   7.103  24.653  0.00  0.00    -0.116 N 
ATOM     26  O10 non d   1     -10.283   6.043  24.009  0.00  0.00    -0.532 OA
ATOM     27  O11 non d   1      -9.775   7.223  25.784  0.00  0.00    -0.532 OA
ENDBRANCH  21  25
ENDBRANCH  17  19
ENDBRANCH  16  17
ENDBRANCH   2  16
BRANCH   1  28
ATOM     28  O1  non d   1     -11.400  12.826  19.446  0.00  0.00    -0.351 OA
ATOM     29  C1  non d   1     -12.225  13.062  18.304  0.00  0.00     0.210 C 
ENDBRANCH   1  28
BRANCH  15  30
ATOM     30  O9  non d   1      -8.873  13.104  18.326  0.00  0.00    -0.357 OA
ATOM     31  H15 non d   1      -8.665  13.677  19.088  0.00  0.00     0.217 HD
ENDBRANCH  15  30
BRANCH  11  32
ATOM     32  C11 non d   1      -5.514  13.252  15.713  0.00  0.00     0.198 C 
BRANCH  32  33
ATOM     33  O7  non d   1      -4.181  13.453  15.239  0.00  0.00    -0.398 OA
ATOM     34  H13 non d   1      -4.007  14.411  15.297  0.00  0.00     0.209 HD
ENDBRANCH  32  33
ENDBRANCH  11  32
BRANCH   9  35
ATOM     35  O5  non d   1      -5.335   8.321  15.753  0.00  0.00    -0.390 OA
ATOM     36  H7  non d   1      -6.072   7.710  15.947  0.00  0.00     0.210 HD
ENDBRANCH   9  35
BRANCH  10  37
ATOM     37  O6  non d   1      -3.863  10.742  15.404  0.00  0.00    -0.390 OA
ATOM     38  H9  non d   1      -3.832  10.363  14.501  0.00  0.00     0.210 HD
ENDBRANCH  10  37
TORSDOF 10
ENDMDL
MODEL 7
REMARK VINA RESULT:    -8.176      2.425      4.288
REMARK INTER + INTRA:         -13.056
REMARK INTER:                 -12.177
REMARK INTRA:                  -0.880
REMARK UNBOUND:                -1.057
REMARK  10 active torsions:
REMARK  status: ('A' for Active; 'I' for Inactive)
REMARK    1  A    between atoms: O1_2  and  C2_3 
REMARK    2  A    between atoms: C3_4  and  O2_5 
REMARK    3  A    between atoms: C21_33  and  O2_5 
REMARK    4  A    between atoms: C8_12  and  O5_13 
REMARK    5  A    between atoms: C9_14  and  O6_15 
REMARK    6  A    between atoms: C10_16  and  C11_17 
REMARK    7  A    between atoms: C11_17  and  O7_18 
REMARK    8  A    between atoms: C14_22  and  O9_23 
REMARK    9  A    between atoms: C16_25  and  C21_33 
REMARK   10  A    between atoms: C20_29  and  N1_30 
ROOT
ATOM      1  C2  non d   1      -9.575  10.180  19.621  0.00  0.00     0.136 A 
ATOM      2  C3  non d   1      -9.355   8.844  19.631  0.00  0.00     0.116 A 
ATOM      3  C4  non d   1      -8.215   8.342  19.118  0.00  0.00     0.058 A 
ATOM      4  C5  non d   1      -7.283   9.167  18.602  0.00  0.00     0.054 A 
ATOM      5  C6  non d   1      -6.033   8.532  18.077  0.00  0.00     0.294 C 
ATOM      6  O3  non d   1      -5.716   7.378  18.337  0.00  0.00    -0.259 OA
ATOM      7  O4  non d   1      -5.236   9.312  17.298  0.00  0.00    -0.306 OA
ATOM      8  C7  non d   1      -5.762  10.563  16.820  0.00  0.00     0.197 C 
ATOM      9  C8  non d   1      -4.613  11.364  16.211  0.00  0.00     0.181 C 
ATOM     10  C9  non d   1      -5.096  12.752  15.779  0.00  0.00     0.180 C 
ATOM     11  C10 non d   1      -5.838  13.449  16.932  0.00  0.00     0.177 C 
ATOM     12  O8  non d   1      -6.884  12.609  17.471  0.00  0.00    -0.368 OA
ATOM     13  C12 non d   1      -6.380  11.361  17.965  0.00  0.00     0.191 C 
ATOM     14  C13 non d   1      -7.478  10.511  18.582  0.00  0.00     0.026 A 
ATOM     15  C14 non d   1      -8.642  11.012  19.083  0.00  0.00     0.112 A 
ENDROOT
BRANCH   2  16
ATOM     16  O2  non d   1     -10.327   7.958  20.142  0.00  0.00    -0.272 OA
BRANCH  16  17
ATOM     17  C21 non d   1      -9.921   7.300  21.271  0.00  0.00     0.298 C 
ATOM     18  O12 non d   1      -9.193   6.317  21.327  0.00  0.00    -0.259 OA
BRANCH  17  19
ATOM     19  C16 non d   1     -10.538   7.932  22.479  0.00  0.00     0.042 A 
ATOM     20  C15 non d   1     -11.721   8.573  22.323  0.00  0.00     0.053 A 
ATOM     21  C20 non d   1     -12.301   9.142  23.400  0.00  0.00     0.103 A 
ATOM     22  C19 non d   1     -11.733   9.083  24.624  0.00  0.00     0.036 A 
ATOM     23  C18 non d   1     -10.557   8.437  24.769  0.00  0.00     0.003 A 
ATOM     24  C17 non d   1      -9.963   7.863  23.702  0.00  0.00     0.018 A 
BRANCH  21  25
ATOM     25  N1  non d   1     -13.580   9.845  23.240  0.00  0.00    -0.116 N 
ATOM     26  O10 non d   1     -13.989  10.530  24.189  0.00  0.00    -0.532 OA
ATOM     27  O11 non d   1     -14.184   9.714  22.165  0.00  0.00    -0.532 OA
ENDBRANCH  21  25
ENDBRANCH  17  19
ENDBRANCH  16  17
ENDBRANCH   2  16
BRANCH   1  28
ATOM     28  O1  non d   1     -10.788  10.645  20.131  0.00  0.00    -0.351 OA
ATOM     29  C1  non d   1     -11.795  10.775  19.125  0.00  0.00     0.210 C 
ENDBRANCH   1  28
BRANCH  15  30
ATOM     30  O9  non d   1      -8.904  12.375  19.047  0.00  0.00    -0.357 OA
ATOM     31  H15 non d   1      -9.626  12.621  19.656  0.00  0.00     0.217 HD
ENDBRANCH  15  30
BRANCH  11  32
ATOM     32  C11 non d   1      -6.494  14.755  16.466  0.00  0.00     0.198 C 
BRANCH  32  33
ATOM     33  O7  non d   1      -6.627  14.773  15.044  0.00  0.00    -0.398 OA
ATOM     34  H13 non d   1      -6.846  13.862  14.774  0.00  0.00     0.209 HD
ENDBRANCH  32  33
ENDBRANCH  11  32
BRANCH   9  35
ATOM     35  O5  non d   1      -4.076  10.688  15.064  0.00  0.00    -0.390 OA
ATOM     36  H7  non d   1      -3.294  11.198  14.778  0.00  0.00     0.210 HD
ENDBRANCH   9  35
BRANCH  10  37
ATOM     37  O6  non d   1      -3.959  13.522  15.380  0.00  0.00    -0.390 OA
ATOM     38  H9  non d   1      -3.255  13.297  16.022  0.00  0.00     0.210 HD
ENDBRANCH  10  37
TORSDOF 10
ENDMDL
MODEL 8
REMARK VINA RESULT:    -8.161      3.044      5.906
REMARK INTER + INTRA:         -13.035
REMARK INTER:                 -12.293
REMARK INTRA:                  -0.742
REMARK UNBOUND:                -1.057
REMARK  10 active torsions:
REMARK  status: ('A' for Active; 'I' for Inactive)
REMARK    1  A    between atoms: O1_2  and  C2_3 
REMARK    2  A    between atoms: C3_4  and  O2_5 
REMARK    3  A    between atoms: C21_33  and  O2_5 
REMARK    4  A    between atoms: C8_12  and  O5_13 
REMARK    5  A    between atoms: C9_14  and  O6_15 
REMARK    6  A    between atoms: C10_16  and  C11_17 
REMARK    7  A    between atoms: C11_17  and  O7_18 
REMARK    8  A    between atoms: C14_22  and  O9_23 
REMARK    9  A    between atoms: C16_25  and  C21_33 
REMARK   10  A    between atoms: C20_29  and  N1_30 
ROOT
ATOM      1  C2  non d   1     -10.093  11.176  19.868  0.00  0.00     0.136 A 
ATOM      2  C3  non d   1     -10.809  10.190  20.461  0.00  0.00     0.116 A 
ATOM      3  C4  non d   1     -10.369   8.918  20.425  0.00  0.00     0.058 A 
ATOM      4  C5  non d   1      -9.208   8.619  19.808  0.00  0.00     0.054 A 
ATOM      5  C6  non d   1      -8.776   7.186  19.836  0.00  0.00     0.294 C 
ATOM      6  O3  non d   1      -9.267   6.361  20.597  0.00  0.00    -0.259 OA
ATOM      7  O4  non d   1      -7.783   6.835  18.977  0.00  0.00    -0.306 OA
ATOM      8  C7  non d   1      -7.414   7.763  17.942  0.00  0.00     0.197 C 
ATOM      9  C8  non d   1      -6.122   7.270  17.294  0.00  0.00     0.181 C 
ATOM     10  C9  non d   1      -5.625   8.277  16.252  0.00  0.00     0.180 C 
ATOM     11  C10 non d   1      -5.553   9.688  16.858  0.00  0.00     0.177 C 
ATOM     12  O8  non d   1      -6.804  10.062  17.479  0.00  0.00    -0.368 OA
ATOM     13  C12 non d   1      -7.185   9.156  18.523  0.00  0.00     0.191 C 
ATOM     14  C13 non d   1      -8.470   9.588  19.208  0.00  0.00     0.026 A 
ATOM     15  C14 non d   1      -8.930  10.871  19.230  0.00  0.00     0.112 A 
ENDROOT
BRANCH   2  16
ATOM     16  O2  non d   1     -12.039  10.474  21.090  0.00  0.00    -0.272 OA
BRANCH  16  17
ATOM     17  C21 non d   1     -12.523   9.431  21.831  0.00  0.00     0.298 C 
ATOM     18  O12 non d   1     -13.353   8.603  21.480  0.00  0.00    -0.259 OA
BRANCH  17  19
ATOM     19  C16 non d   1     -11.918   9.454  23.200  0.00  0.00     0.042 A 
ATOM     20  C15 non d   1     -11.356   8.311  23.662  0.00  0.00     0.053 A 
ATOM     21  C20 non d   1     -10.796   8.310  24.890  0.00  0.00     0.103 A 
ATOM     22  C19 non d   1     -10.778   9.419  25.661  0.00  0.00     0.036 A 
ATOM     23  C18 non d   1     -11.336  10.553  25.189  0.00  0.00     0.003 A 
ATOM     24  C17 non d   1     -11.902  10.572  23.963  0.00  0.00     0.018 A 
BRANCH  21  25
ATOM     25  N1  non d   1     -10.190   7.075  25.403  0.00  0.00    -0.116 N 
ATOM     26  O10 non d   1     -10.246   6.061  24.691  0.00  0.00    -0.532 OA
ATOM     27  O11 non d   1      -9.657   7.111  26.522  0.00  0.00    -0.532 OA
ENDBRANCH  21  25
ENDBRANCH  17  19
ENDBRANCH  16  17
ENDBRANCH   2  16
BRANCH   1  28
ATOM     28  O1  non d   1     -10.612  12.470  19.903  0.00  0.00    -0.351 OA
ATOM     29  C1  non d   1     -11.419  12.771  18.763  0.00  0.00     0.210 C 
ENDBRANCH   1  28
BRANCH  15  30
ATOM     30  O9  non d   1      -8.231  11.889  18.595  0.00  0.00    -0.357 OA
ATOM     31  H15 non d   1      -7.860  12.527  19.233  0.00  0.00     0.217 HD
ENDBRANCH  15  30
BRANCH  11  32
ATOM     32  C11 non d   1      -5.242  10.741  15.786  0.00  0.00     0.198 C 
BRANCH  32  33
ATOM     33  O7  non d   1      -3.837  10.809  15.538  0.00  0.00    -0.398 OA
ATOM     34  H13 non d   1      -3.396  10.575  16.376  0.00  0.00     0.209 HD
ENDBRANCH  32  33
ENDBRANCH  11  32
BRANCH   9  35
ATOM     35  O5  non d   1      -6.332   6.005  16.645  0.00  0.00    -0.390 OA
ATOM     36  H7  non d   1      -6.317   6.177  15.683  0.00  0.00     0.210 HD
ENDBRANCH   9  35
BRANCH  10  37
ATOM     37  O6  non d   1      -4.333   7.861  15.801  0.00  0.00    -0.390 OA
ATOM     38  H9  non d   1      -3.813   7.704  16.615  0.00  0.00     0.210 HD
ENDBRANCH  10  37
TORSDOF 10
ENDMDL
MODEL 9
REMARK VINA RESULT:    -8.158      3.025      4.891
REMARK INTER + INTRA:         -13.030
REMARK INTER:                 -12.471
REMARK INTRA:                  -0.559
REMARK UNBOUND:                -1.057
REMARK  10 active torsions:
REMARK  status: ('A' for Active; 'I' for Inactive)
REMARK    1  A    between atoms: O1_2  and  C2_3 
REMARK    2  A    between atoms: C3_4  and  O2_5 
REMARK    3  A    between atoms: C21_33  and  O2_5 
REMARK    4  A    between atoms: C8_12  and  O5_13 
REMARK    5  A    between atoms: C9_14  and  O6_15 
REMARK    6  A    between atoms: C10_16  and  C11_17 
REMARK    7  A    between atoms: C11_17  and  O7_18 
REMARK    8  A    between atoms: C14_22  and  O9_23 
REMARK    9  A    between atoms: C16_25  and  C21_33 
REMARK   10  A    between atoms: C20_29  and  N1_30 
ROOT
ATOM      1  C2  non d   1      -9.811  10.370  19.674  0.00  0.00     0.136 A 
ATOM      2  C3  non d   1      -9.539   9.055  19.848  0.00  0.00     0.116 A 
ATOM      3  C4  non d   1      -8.374   8.541  19.410  0.00  0.00     0.058 A 
ATOM      4  C5  non d   1      -7.467   9.334  18.806  0.00  0.00     0.054 A 
ATOM      5  C6  non d   1      -6.186   8.692  18.374  0.00  0.00     0.294 C 
ATOM      6  O3  non d   1      -5.829   7.591  18.774  0.00  0.00    -0.259 OA
ATOM      7  O4  non d   1      -5.411   9.403  17.513  0.00  0.00    -0.306 OA
ATOM      8  C7  non d   1      -5.978  10.564  16.881  0.00  0.00     0.197 C 
ATOM      9  C8  non d   1      -4.853  11.331  16.190  0.00  0.00     0.181 C 
ATOM     10  C9  non d   1      -5.384  12.636  15.588  0.00  0.00     0.180 C 
ATOM     11  C10 non d   1      -6.168  13.437  16.640  0.00  0.00     0.177 C 
ATOM     12  O8  non d   1      -7.188  12.627  17.268  0.00  0.00    -0.368 OA
ATOM     13  C12 non d   1      -6.643  11.470  17.915  0.00  0.00     0.191 C 
ATOM     14  C13 non d   1      -7.715  10.657  18.621  0.00  0.00     0.026 A 
ATOM     15  C14 non d   1      -8.904  11.168  19.047  0.00  0.00     0.112 A 
ENDROOT
BRANCH   2  16
ATOM     16  O2  non d   1     -10.483   8.199  20.455  0.00  0.00    -0.272 OA
BRANCH  16  17
ATOM     17  C21 non d   1      -9.936   7.369  21.395  0.00  0.00     0.298 C 
ATOM     18  O12 non d   1      -9.326   6.327  21.190  0.00  0.00    -0.259 OA
BRANCH  17  19
ATOM     19  C16 non d   1     -10.226   7.891  22.767  0.00  0.00     0.042 A 
ATOM     20  C15 non d   1      -9.985   7.073  23.819  0.00  0.00     0.053 A 
ATOM     21  C20 non d   1     -10.231   7.526  25.067  0.00  0.00     0.103 A 
ATOM     22  C19 non d   1     -10.704   8.771  25.288  0.00  0.00     0.036 A 
ATOM     23  C18 non d   1     -10.936   9.580  24.232  0.00  0.00     0.003 A 
ATOM     24  C17 non d   1     -10.697   9.143  22.977  0.00  0.00     0.018 A 
BRANCH  21  25
ATOM     25  N1  non d   1      -9.979   6.645  26.213  0.00  0.00    -0.116 N 
ATOM     26  O10 non d   1     -10.128   5.424  26.053  0.00  0.00    -0.532 OA
ATOM     27  O11 non d   1      -9.633   7.169  27.283  0.00  0.00    -0.532 OA
ENDBRANCH  21  25
ENDBRANCH  17  19
ENDBRANCH  16  17
ENDBRANCH   2  16
BRANCH   1  28
ATOM     28  O1  non d   1     -11.048  10.843  20.113  0.00  0.00    -0.351 OA
ATOM     29  C1  non d   1     -12.045  10.811  19.090  0.00  0.00     0.210 C 
ENDBRANCH   1  28
BRANCH  15  30
ATOM     30  O9  non d   1      -9.219  12.504  18.843  0.00  0.00    -0.357 OA
ATOM     31  H15 non d   1      -9.498  12.941  19.670  0.00  0.00     0.217 HD
ENDBRANCH  15  30
BRANCH  11  32
ATOM     32  C11 non d   1      -6.868  14.650  16.014  0.00  0.00     0.198 C 
BRANCH  32  33
ATOM     33  O7  non d   1      -6.832  14.571  14.588  0.00  0.00    -0.398 OA
ATOM     34  H13 non d   1      -6.725  13.628  14.364  0.00  0.00     0.209 HD
ENDBRANCH  32  33
ENDBRANCH  11  32
BRANCH   9  35
ATOM     35  O5  non d   1      -4.274  10.543  15.138  0.00  0.00    -0.390 OA
ATOM     36  H7  non d   1      -5.017  10.190  14.611  0.00  0.00     0.210 HD
ENDBRANCH   9  35
BRANCH  10  37
ATOM     37  O6  non d   1      -4.273  13.398  15.108  0.00  0.00    -0.390 OA
ATOM     38  H9  non d   1      -3.691  13.527  15.885  0.00  0.00     0.210 HD
ENDBRANCH  10  37
TORSDOF 10
ENDMDL
