@<TRIPOS>MOLECULE
result_docking1_4jir_Aldolase_derivate_acd71
 54 56 0 0 0
SMALL
GASTEIGER

@<TRIPOS>ATOM
      1  C1        -7.8360   14.0060   14.4050 C.3     1  RES1        0.1740
      2  C2        -8.2540   15.4530   14.7160 C.3     1  RES1        0.1704
      3  C6        -8.0870   13.5860   16.7950 C.3     1  RES1        0.1830
      4  C7        -9.4890   14.1060   16.4770 C.3     1  RES1        0.2293
      5  C8        -9.3620   15.4680   15.7840 C.3     1  RES1        0.1826
      6  O9        -7.3770   13.2970   15.5800 O.3     1  RES1       -0.3453
      7  C10       -8.1950   12.3550   17.6810 C.2     1  RES1        0.0490
      8  C11       -9.3480   12.1510   18.3680 C.2     1  RES1        0.0800
      9  C12      -10.4660   13.1480   18.4070 C.2     1  RES1        0.3412
     10  O13      -10.2930   14.2620   17.6490 O.3     1  RES1       -0.4437
     11  C14       -7.3440   10.3390   18.6000 C.2     1  RES1        0.0472
     12  C15       -7.1850   11.4490   17.8250 C.2     1  RES1        0.1475
     13  C16       -6.2120    9.3560   18.8190 C.3     1  RES1        0.0374
     14  O19      -11.4450   13.0340   19.1320 O.2     1  RES1       -0.2449
     15  C20       -9.5130   11.0470   19.1240 C.2     1  RES1        0.0437
     16  C21       -8.5300   10.1300   19.2220 C.2     1  RES1        0.1476
     17  O22       -8.7160    8.9910   20.0380 O.3     1  RES1       -0.4232
     18  C26       -9.4350    7.9780   19.4600 C.2     1  RES1        0.3420
     19  O28       -9.2170    7.4740   18.3610 O.2     1  RES1       -0.2478
     20  C27      -10.6130    7.5470   20.3380 C.3     1  RES1        0.2048
     21  N29      -10.5800    7.9860   21.7480 N.am    1  RES1       -0.2606
     22  C36       -9.9800    7.0970   22.6350 C.2     1  RES1        0.2269
     23  O37       -9.3980    6.0840   22.2440 O.2     1  RES1       -0.2748
     24  C38      -10.0340    7.4150   24.1060 C.3     1  RES1        0.0949
     25  C30      -11.4610    9.1070   22.1770 C.3     1  RES1        0.1854
     26  C31      -12.5480    9.3550   21.1280 C.2     1  RES1        0.3330
     27  O32      -13.3690    8.5530   20.7140 O.2     1  RES1       -0.2484
     28  O33      -12.5100   10.6080   20.6300 O.3     1  RES1       -0.4790
     29  C34      -10.7540   10.4430   22.4570 C.3     1  RES1        0.0847
     30  S35      -11.1950   11.1470   24.0790 S.3     1  RES1       -0.1657
     31  O17       -5.9080   11.7160   17.2640 O.3     1  RES1       -0.4103
     32  C23       -5.0630   12.5170   17.9870 C.2     1  RES1        0.4157
     33  N24       -4.1130   13.1640   17.1840 N.am    1  RES1       -0.1855
     34  C45       -3.5090   12.6410   16.0390 C.2     1  RES1        0.2348
     35  C46       -3.8720   11.2480   15.5880 C.3     1  RES1        0.0954
     36  O47       -2.6730   13.2720   15.3870 O.2     1  RES1       -0.2743
     37  O25       -5.1450   12.6860   19.2020 O.2     1  RES1       -0.2253
     38  C39       -3.5120   14.3700   17.7970 C.3     1  RES1        0.1943
     39  C40       -4.5870   15.3970   18.1510 C.2     1  RES1        0.3335
     40  O43       -5.3320   15.9500   17.3560 O.2     1  RES1       -0.2484
     41  O44       -4.6970   15.6440   19.4710 O.3     1  RES1       -0.4790
     42  C41       -2.5880   14.1670   19.0080 C.3     1  RES1        0.0852
     43  S42       -1.1180   15.2490   18.9760 S.3     1  RES1       -0.1657
     44  O18      -10.6130   15.8060   15.1700 O.3     1  RES1       -0.3785
     45  C5        -6.7210   13.9370   13.3580 C.3     1  RES1        0.1692
     46  O4        -5.4620   14.2210   13.9750 O.3     1  RES1       -0.3794
     47  O3        -7.1210   16.1850   15.2030 O.3     1  RES1       -0.3794
     48 H         -11.8778   11.2207   20.9508 H       1  RES1        0.2951
     49 H         -10.5352   12.3228   24.2574 H       1  RES1        0.1024
     50 H          -4.1234   15.2175   20.0768 H       1  RES1        0.2951
     51 H          -0.3549   15.0097   20.0760 H       1  RES1        0.1024
     52 H         -10.5353   16.6674   14.7308 H       1  RES1        0.2106
     53 H          -4.7582   14.1764   13.3090 H       1  RES1        0.2105
     54 H          -6.4195   16.1784   14.5331 H       1  RES1        0.2105
@<TRIPOS>BOND
     1    45    46    1
     2    45     1    1
     3     1     2    1
     4     1     6    1
     5     2    47    1
     6     2     5    1
     7    44     5    1
     8    36    34    2
     9     6     3    1
    10    35    34    1
    11     5     4    1
    12    34    33   am
    13     4     3    1
    14     4    10    1
    15     3     7    1
    16    33    38    1
    17    33    32   am
    18    31    12    1
    19    31    32    1
    20    40    39    2
    21    10     9    1
    22     7    12    2
    23     7     8    1
    24    38    39    1
    25    38    42    1
    26    12    11    1
    27    32    37    2
    28    39    41    1
    29    19    18    2
    30     8     9    1
    31     8    15    2
    32     9    14    2
    33    11    13    1
    34    11    16    2
    35    43    42    1
    36    15    16    1
    37    16    17    1
    38    18    17    1
    39    18    20    1
    40    20    21    1
    41    28    26    1
    42    27    26    2
    43    26    25    1
    44    21    25    1
    45    21    22   am
    46    25    29    1
    47    23    22    2
    48    29    30    1
    49    22    24    1
    50    28    48    1
    51    30    49    1
    52    41    50    1
    53    43    51    1
    54    44    52    1
    55    46    53    1
    56    47    54    1
