MODEL 1
REMARK VINA RESULT:    -9.116      0.000      0.000
REMARK INTER + INTRA:         -17.121
REMARK INTER:                 -15.244
REMARK INTRA:                  -1.877
REMARK UNBOUND:                -1.877
REMARK  13 active torsions:
REMARK  status: ('A' for Active; 'I' for Inactive)
REMARK    1  A    between atoms: O1_2  and  C2_3 
REMARK    2  A    between atoms: C3_4  and  O2_5 
REMARK    3  A    between atoms: C21_33  and  O2_5 
REMARK    4  A    between atoms: C8_12  and  O5_13 
REMARK    5  A    between atoms: C9_14  and  O6_15 
REMARK    6  A    between atoms: C10_16  and  C11_17 
REMARK    7  A    between atoms: C11_17  and  O7_18 
REMARK    8  A    between atoms: C14_22  and  O9_23 
REMARK    9  A    between atoms: C28_44  and  O9_23 
REMARK   10  A    between atoms: C16_25  and  C21_33 
REMARK   11  A    between atoms: C20_29  and  N1_30 
REMARK   12  A    between atoms: C23_36  and  C28_44 
REMARK   13  A    between atoms: C27_40  and  N2_41 
ROOT
ATOM      1  C2  non d   1      -7.292   9.140  18.560  0.00  0.00     0.137 A 
ATOM      2  C3  non d   1      -6.217   8.495  18.050  0.00  0.00     0.116 A 
ATOM      3  C4  non d   1      -5.403   9.127  17.181  0.00  0.00     0.058 A 
ATOM      4  C5  non d   1      -5.682  10.385  16.780  0.00  0.00     0.054 A 
ATOM      5  C6  non d   1      -4.721  11.016  15.821  0.00  0.00     0.294 C 
ATOM      6  O3  non d   1      -3.600  10.569  15.618  0.00  0.00    -0.259 OA
ATOM      7  O4  non d   1      -5.146  12.144  15.190  0.00  0.00    -0.306 OA
ATOM      8  C7  non d   1      -6.541  12.482  15.267  0.00  0.00     0.197 C 
ATOM      9  C8  non d   1      -6.724  13.894  14.712  0.00  0.00     0.181 C 
ATOM     10  C9  non d   1      -8.178  14.352  14.866  0.00  0.00     0.180 C 
ATOM     11  C10 non d   1      -8.648  14.152  16.314  0.00  0.00     0.177 C 
ATOM     12  O8  non d   1      -8.418  12.793  16.744  0.00  0.00    -0.368 OA
ATOM     13  C12 non d   1      -7.033  12.438  16.712  0.00  0.00     0.191 C 
ATOM     14  C13 non d   1      -6.777  11.039  17.248  0.00  0.00     0.026 A 
ATOM     15  C14 non d   1      -7.580  10.401  18.147  0.00  0.00     0.125 A 
ENDROOT
BRANCH   2  16
ATOM     16  O2  non d   1      -5.932   7.172  18.444  0.00  0.00    -0.272 OA
BRANCH  16  17
ATOM     17  C21 non d   1      -5.937   6.294  17.392  0.00  0.00     0.298 C 
ATOM     18  O12 non d   1      -6.768   6.225  16.497  0.00  0.00    -0.259 OA
BRANCH  17  19
ATOM     19  C16 non d   1      -4.721   5.422  17.453  0.00  0.00     0.042 A 
ATOM     20  C15 non d   1      -4.642   4.244  16.789  0.00  0.00     0.053 A 
ATOM     21  C20 non d   1      -3.507   3.517  16.885  0.00  0.00     0.103 A 
ATOM     22  C19 non d   1      -2.457   3.935  17.620  0.00  0.00     0.036 A 
ATOM     23  C18 non d   1      -2.545   5.113  18.273  0.00  0.00     0.003 A 
ATOM     24  C17 non d   1      -3.670   5.854  18.188  0.00  0.00     0.018 A 
BRANCH  21  25
ATOM     25  N1  non d   1      -3.415   2.241  16.164  0.00  0.00    -0.116 N 
ATOM     26  O10 non d   1      -2.299   1.709  16.068  0.00  0.00    -0.532 OA
ATOM     27  O11 non d   1      -4.457   1.763  15.691  0.00  0.00    -0.532 OA
ENDBRANCH  21  25
ENDBRANCH  17  19
ENDBRANCH  16  17
ENDBRANCH   2  16
BRANCH   1  28
ATOM     28  O1  non d   1      -8.139   8.497  19.461  0.00  0.00    -0.351 OA
ATOM     29  C1  non d   1      -9.097   7.684  18.778  0.00  0.00     0.210 C 
ENDBRANCH   1  28
BRANCH  15  30
ATOM     30  O9  non d   1      -8.749  11.011  18.659  0.00  0.00    -0.271 OA
BRANCH  30  31
ATOM     31  C28 non d   1      -8.574  11.663  19.847  0.00  0.00     0.298 C 
ATOM     32  O15 non d   1      -7.599  12.330  20.170  0.00  0.00    -0.259 OA
BRANCH  31  33
ATOM     33  C23 non d   1      -9.777  11.481  20.723  0.00  0.00     0.042 A 
ATOM     34  C22 non d   1     -10.621  10.463  20.425  0.00  0.00     0.053 A 
ATOM     35  C27 non d   1     -11.710  10.268  21.198  0.00  0.00     0.103 A 
ATOM     36  C26 non d   1     -11.977  11.062  22.257  0.00  0.00     0.036 A 
ATOM     37  C25 non d   1     -11.133  12.073  22.544  0.00  0.00     0.003 A 
ATOM     38  C24 non d   1     -10.039  12.283  21.782  0.00  0.00     0.018 A 
BRANCH  35  39
ATOM     39  N2  non d   1     -12.627   9.165  20.884  0.00  0.00    -0.116 N 
ATOM     40  O13 non d   1     -13.338   8.723  21.796  0.00  0.00    -0.532 OA
ATOM     41  O14 non d   1     -12.636   8.733  19.722  0.00  0.00    -0.532 OA
ENDBRANCH  35  39
ENDBRANCH  31  33
ENDBRANCH  30  31
ENDBRANCH  15  30
BRANCH  11  42
ATOM     42  C11 non d   1     -10.151  14.422  16.466  0.00  0.00     0.198 C 
BRANCH  42  43
ATOM     43  O7  non d   1     -10.749  14.645  15.187  0.00  0.00    -0.398 OA
ATOM     44  H13 non d   1     -10.513  13.868  14.645  0.00  0.00     0.209 HD
ENDBRANCH  42  43
ENDBRANCH  11  42
BRANCH   9  45
ATOM     45  O5  non d   1      -6.374  13.941  13.320  0.00  0.00    -0.390 OA
ATOM     46  H7  non d   1      -5.524  13.467  13.229  0.00  0.00     0.210 HD
ENDBRANCH   9  45
BRANCH  10  47
ATOM     47  O6  non d   1      -8.264  15.731  14.497  0.00  0.00    -0.390 OA
ATOM     48  H9  non d   1      -7.742  16.212  15.172  0.00  0.00     0.210 HD
ENDBRANCH  10  47
TORSDOF 13
ENDMDL
MODEL 2
REMARK VINA RESULT:    -8.990      2.989      6.358
REMARK INTER + INTRA:         -16.912
REMARK INTER:                 -15.660
REMARK INTRA:                  -1.251
REMARK UNBOUND:                -1.877
REMARK  13 active torsions:
REMARK  status: ('A' for Active; 'I' for Inactive)
REMARK    1  A    between atoms: O1_2  and  C2_3 
REMARK    2  A    between atoms: C3_4  and  O2_5 
REMARK    3  A    between atoms: C21_33  and  O2_5 
REMARK    4  A    between atoms: C8_12  and  O5_13 
REMARK    5  A    between atoms: C9_14  and  O6_15 
REMARK    6  A    between atoms: C10_16  and  C11_17 
REMARK    7  A    between atoms: C11_17  and  O7_18 
REMARK    8  A    between atoms: C14_22  and  O9_23 
REMARK    9  A    between atoms: C28_44  and  O9_23 
REMARK   10  A    between atoms: C16_25  and  C21_33 
REMARK   11  A    between atoms: C20_29  and  N1_30 
REMARK   12  A    between atoms: C23_36  and  C28_44 
REMARK   13  A    between atoms: C27_40  and  N2_41 
ROOT
ATOM      1  C2  non d   1      -5.792   8.162  17.851  0.00  0.00     0.137 A 
ATOM      2  C3  non d   1      -5.667   6.963  18.469  0.00  0.00     0.116 A 
ATOM      3  C4  non d   1      -6.683   6.481  19.212  0.00  0.00     0.058 A 
ATOM      4  C5  non d   1      -7.806   7.209  19.384  0.00  0.00     0.054 A 
ATOM      5  C6  non d   1      -8.887   6.595  20.216  0.00  0.00     0.294 C 
ATOM      6  O3  non d   1      -8.910   5.403  20.497  0.00  0.00    -0.259 OA
ATOM      7  O4  non d   1      -9.877   7.428  20.636  0.00  0.00    -0.306 OA
ATOM      8  C7  non d   1      -9.677   8.845  20.499  0.00  0.00     0.197 C 
ATOM      9  C8  non d   1     -11.002   9.547  20.794  0.00  0.00     0.181 C 
ATOM     10  C9  non d   1     -10.878  11.056  20.560  0.00  0.00     0.180 C 
ATOM     11  C10 non d   1     -10.287  11.332  19.170  0.00  0.00     0.177 C 
ATOM     12  O8  non d   1      -9.049  10.612  18.988  0.00  0.00    -0.368 OA
ATOM     13  C12 non d   1      -9.222   9.196  19.084  0.00  0.00     0.191 C 
ATOM     14  C13 non d   1      -7.939   8.431  18.806  0.00  0.00     0.026 A 
ATOM     15  C14 non d   1      -6.917   8.900  18.033  0.00  0.00     0.125 A 
ENDROOT
BRANCH   2  16
ATOM     16  O2  non d   1      -4.487   6.207  18.316  0.00  0.00    -0.272 OA
BRANCH  16  17
ATOM     17  C21 non d   1      -4.649   5.139  17.475  0.00  0.00     0.298 C 
ATOM     18  O12 non d   1      -5.658   4.843  16.849  0.00  0.00    -0.259 OA
BRANCH  17  19
ATOM     19  C16 non d   1      -3.367   4.370  17.378  0.00  0.00     0.042 A 
ATOM     20  C15 non d   1      -2.249   4.738  18.048  0.00  0.00     0.053 A 
ATOM     21  C20 non d   1      -1.133   3.988  17.917  0.00  0.00     0.103 A 
ATOM     22  C19 non d   1      -1.108   2.886  17.140  0.00  0.00     0.036 A 
ATOM     23  C18 non d   1      -2.229   2.524  16.482  0.00  0.00     0.003 A 
ATOM     24  C17 non d   1      -3.353   3.261  16.602  0.00  0.00     0.018 A 
BRANCH  21  25
ATOM     25  N1  non d   1       0.080   4.382  18.644  0.00  0.00    -0.116 N 
ATOM     26  O10 non d   1       1.038   4.811  17.984  0.00  0.00    -0.532 OA
ATOM     27  O11 non d   1       0.082   4.265  19.879  0.00  0.00    -0.532 OA
ENDBRANCH  21  25
ENDBRANCH  17  19
ENDBRANCH  16  17
ENDBRANCH   2  16
BRANCH   1  28
ATOM     28  O1  non d   1      -4.749   8.669  17.077  0.00  0.00    -0.351 OA
ATOM     29  C1  non d   1      -4.954   8.392  15.690  0.00  0.00     0.210 C 
ENDBRANCH   1  28
BRANCH  15  30
ATOM     30  O9  non d   1      -6.975  10.173  17.419  0.00  0.00    -0.271 OA
BRANCH  30  31
ATOM     31  C28 non d   1      -6.165  11.114  17.989  0.00  0.00     0.298 C 
ATOM     32  O15 non d   1      -5.753  11.111  19.144  0.00  0.00    -0.259 OA
BRANCH  31  33
ATOM     33  C23 non d   1      -5.804  12.167  16.986  0.00  0.00     0.042 A 
ATOM     34  C22 non d   1      -4.488  12.375  16.741  0.00  0.00     0.053 A 
ATOM     35  C27 non d   1      -4.131  13.312  15.838  0.00  0.00     0.103 A 
ATOM     36  C26 non d   1      -5.050  14.045  15.177  0.00  0.00     0.036 A 
ATOM     37  C25 non d   1      -6.358  13.832  15.428  0.00  0.00     0.003 A 
ATOM     38  C24 non d   1      -6.735  12.899  16.328  0.00  0.00     0.018 A 
BRANCH  35  39
ATOM     39  N2  non d   1      -2.706  13.541  15.566  0.00  0.00    -0.116 N 
ATOM     40  O13 non d   1      -1.894  12.698  15.974  0.00  0.00    -0.532 OA
ATOM     41  O14 non d   1      -2.392  14.567  14.945  0.00  0.00    -0.532 OA
ENDBRANCH  35  39
ENDBRANCH  31  33
ENDBRANCH  30  31
ENDBRANCH  15  30
BRANCH  11  42
ATOM     42  C11 non d   1      -9.975  12.821  18.971  0.00  0.00     0.198 C 
BRANCH  42  43
ATOM     43  O7  non d   1      -9.921  13.492  20.232  0.00  0.00    -0.398 OA
ATOM     44  H13 non d   1      -9.131  13.140  20.685  0.00  0.00     0.209 HD
ENDBRANCH  42  43
ENDBRANCH  11  42
BRANCH   9  45
ATOM     45  O5  non d   1     -11.400   9.327  22.156  0.00  0.00    -0.390 OA
ATOM     46  H7  non d   1     -11.215  10.155  22.639  0.00  0.00     0.210 HD
ENDBRANCH   9  45
BRANCH  10  47
ATOM     47  O6  non d   1     -12.176  11.645  20.678  0.00  0.00    -0.390 OA
ATOM     48  H9  non d   1     -12.294  11.822  21.634  0.00  0.00     0.210 HD
ENDBRANCH  10  47
TORSDOF 13
ENDMDL
MODEL 3
REMARK VINA RESULT:    -8.817      3.022      6.514
REMARK INTER + INTRA:         -16.621
REMARK INTER:                 -14.649
REMARK INTRA:                  -1.972
REMARK UNBOUND:                -1.877
REMARK  13 active torsions:
REMARK  status: ('A' for Active; 'I' for Inactive)
REMARK    1  A    between atoms: O1_2  and  C2_3 
REMARK    2  A    between atoms: C3_4  and  O2_5 
REMARK    3  A    between atoms: C21_33  and  O2_5 
REMARK    4  A    between atoms: C8_12  and  O5_13 
REMARK    5  A    between atoms: C9_14  and  O6_15 
REMARK    6  A    between atoms: C10_16  and  C11_17 
REMARK    7  A    between atoms: C11_17  and  O7_18 
REMARK    8  A    between atoms: C14_22  and  O9_23 
REMARK    9  A    between atoms: C28_44  and  O9_23 
REMARK   10  A    between atoms: C16_25  and  C21_33 
REMARK   11  A    between atoms: C20_29  and  N1_30 
REMARK   12  A    between atoms: C23_36  and  C28_44 
REMARK   13  A    between atoms: C27_40  and  N2_41 
ROOT
ATOM      1  C2  non d   1      -9.393   9.851  19.120  0.00  0.00     0.137 A 
ATOM      2  C3  non d   1      -8.696   8.760  18.721  0.00  0.00     0.116 A 
ATOM      3  C4  non d   1      -8.674   7.656  19.494  0.00  0.00     0.058 A 
ATOM      4  C5  non d   1      -9.304   7.649  20.687  0.00  0.00     0.054 A 
ATOM      5  C6  non d   1      -9.237   6.379  21.477  0.00  0.00     0.294 C 
ATOM      6  O3  non d   1      -8.896   5.311  20.985  0.00  0.00    -0.259 OA
ATOM      7  O4  non d   1      -9.602   6.458  22.785  0.00  0.00    -0.306 OA
ATOM      8  C7  non d   1      -9.748   7.761  23.373  0.00  0.00     0.197 C 
ATOM      9  C8  non d   1     -10.400   7.599  24.745  0.00  0.00     0.181 C 
ATOM     10  C9  non d   1     -10.680   8.966  25.377  0.00  0.00     0.180 C 
ATOM     11  C10 non d   1     -11.444   9.862  24.392  0.00  0.00     0.177 C 
ATOM     12  O8  non d   1     -10.754   9.937  23.126  0.00  0.00    -0.368 OA
ATOM     13  C12 non d   1     -10.624   8.658  22.499  0.00  0.00     0.191 C 
ATOM     14  C13 non d   1      -9.977   8.744  21.127  0.00  0.00     0.026 A 
ATOM     15  C14 non d   1     -10.016   9.847  20.326  0.00  0.00     0.125 A 
ENDROOT
BRANCH   2  16
ATOM     16  O2  non d   1      -8.013   8.768  17.488  0.00  0.00    -0.272 OA
BRANCH  16  17
ATOM     17  C21 non d   1      -7.835   7.511  16.974  0.00  0.00     0.298 C 
ATOM     18  O12 non d   1      -8.703   6.765  16.541  0.00  0.00    -0.259 OA
BRANCH  17  19
ATOM     19  C16 non d   1      -6.377   7.168  16.965  0.00  0.00     0.042 A 
ATOM     20  C15 non d   1      -5.909   5.984  17.430  0.00  0.00     0.053 A 
ATOM     21  C20 non d   1      -4.581   5.744  17.380  0.00  0.00     0.103 A 
ATOM     22  C19 non d   1      -3.715   6.648  16.878  0.00  0.00     0.036 A 
ATOM     23  C18 non d   1      -4.193   7.821  16.413  0.00  0.00     0.003 A 
ATOM     24  C17 non d   1      -5.517   8.079  16.453  0.00  0.00     0.018 A 
BRANCH  21  25
ATOM     25  N1  non d   1      -4.070   4.461  17.879  0.00  0.00    -0.116 N 
ATOM     26  O10 non d   1      -4.799   3.464  17.769  0.00  0.00    -0.532 OA
ATOM     27  O11 non d   1      -2.937   4.442  18.381  0.00  0.00    -0.532 OA
ENDBRANCH  21  25
ENDBRANCH  17  19
ENDBRANCH  16  17
ENDBRANCH   2  16
BRANCH   1  28
ATOM     28  O1  non d   1      -9.424  10.997  18.328  0.00  0.00    -0.351 OA
ATOM     29  C1  non d   1      -8.298  11.837  18.592  0.00  0.00     0.210 C 
ENDBRANCH   1  28
BRANCH  15  30
ATOM     30  O9  non d   1     -10.677  11.032  20.728  0.00  0.00    -0.271 OA
BRANCH  30  31
ATOM     31  C28 non d   1     -11.943  11.169  20.233  0.00  0.00     0.298 C 
ATOM     32  O15 non d   1     -12.318  10.862  19.107  0.00  0.00    -0.259 OA
BRANCH  31  33
ATOM     33  C23 non d   1     -12.854  11.732  21.282  0.00  0.00     0.042 A 
ATOM     34  C22 non d   1     -13.700  10.874  21.903  0.00  0.00     0.053 A 
ATOM     35  C27 non d   1     -14.528  11.348  22.857  0.00  0.00     0.103 A 
ATOM     36  C26 non d   1     -14.535  12.652  23.205  0.00  0.00     0.036 A 
ATOM     37  C25 non d   1     -13.690  13.498  22.581  0.00  0.00     0.003 A 
ATOM     38  C24 non d   1     -12.855  13.042  21.624  0.00  0.00     0.018 A 
BRANCH  35  39
ATOM     39  N2  non d   1     -15.445  10.424  23.536  0.00  0.00    -0.116 N 
ATOM     40  O13 non d   1     -16.450  10.043  22.918  0.00  0.00    -0.532 OA
ATOM     41  O14 non d   1     -15.167  10.077  24.693  0.00  0.00    -0.532 OA
ENDBRANCH  35  39
ENDBRANCH  31  33
ENDBRANCH  30  31
ENDBRANCH  15  30
BRANCH  11  42
ATOM     42  C11 non d   1     -11.579  11.298  24.916  0.00  0.00     0.198 C 
BRANCH  42  43
ATOM     43  O7  non d   1     -12.608  11.373  25.904  0.00  0.00    -0.398 OA
ATOM     44  H13 non d   1     -13.405  10.995  25.485  0.00  0.00     0.209 HD
ENDBRANCH  42  43
ENDBRANCH  11  42
BRANCH   9  45
ATOM     45  O5  non d   1      -9.547   6.853  25.627  0.00  0.00    -0.390 OA
ATOM     46  H7  non d   1      -9.772   7.133  26.536  0.00  0.00     0.210 HD
ENDBRANCH   9  45
BRANCH  10  47
ATOM     47  O6  non d   1     -11.442   8.771  26.571  0.00  0.00    -0.390 OA
ATOM     48  H9  non d   1     -12.371   8.950  26.318  0.00  0.00     0.210 HD
ENDBRANCH  10  47
TORSDOF 13
ENDMDL
MODEL 4
REMARK VINA RESULT:    -8.798      3.212      8.214
REMARK INTER + INTRA:         -16.590
REMARK INTER:                 -14.721
REMARK INTRA:                  -1.868
REMARK UNBOUND:                -1.877
REMARK  13 active torsions:
REMARK  status: ('A' for Active; 'I' for Inactive)
REMARK    1  A    between atoms: O1_2  and  C2_3 
REMARK    2  A    between atoms: C3_4  and  O2_5 
REMARK    3  A    between atoms: C21_33  and  O2_5 
REMARK    4  A    between atoms: C8_12  and  O5_13 
REMARK    5  A    between atoms: C9_14  and  O6_15 
REMARK    6  A    between atoms: C10_16  and  C11_17 
REMARK    7  A    between atoms: C11_17  and  O7_18 
REMARK    8  A    between atoms: C14_22  and  O9_23 
REMARK    9  A    between atoms: C28_44  and  O9_23 
REMARK   10  A    between atoms: C16_25  and  C21_33 
REMARK   11  A    between atoms: C20_29  and  N1_30 
REMARK   12  A    between atoms: C23_36  and  C28_44 
REMARK   13  A    between atoms: C27_40  and  N2_41 
ROOT
ATOM      1  C2  non d   1     -10.059  11.146  19.841  0.00  0.00     0.137 A 
ATOM      2  C3  non d   1     -10.781  10.169  20.441  0.00  0.00     0.116 A 
ATOM      3  C4  non d   1     -10.306   8.909  20.478  0.00  0.00     0.058 A 
ATOM      4  C5  non d   1      -9.137   8.604  19.878  0.00  0.00     0.054 A 
ATOM      5  C6  non d   1      -8.678   7.183  19.974  0.00  0.00     0.294 C 
ATOM      6  O3  non d   1      -9.152   6.389  20.777  0.00  0.00    -0.259 OA
ATOM      7  O4  non d   1      -7.677   6.809  19.133  0.00  0.00    -0.306 OA
ATOM      8  C7  non d   1      -7.333   7.690  18.051  0.00  0.00     0.197 C 
ATOM      9  C8  non d   1      -6.037   7.188  17.416  0.00  0.00     0.181 C 
ATOM     10  C9  non d   1      -5.562   8.149  16.321  0.00  0.00     0.180 C 
ATOM     11  C10 non d   1      -5.511   9.586  16.861  0.00  0.00     0.177 C 
ATOM     12  O8  non d   1      -6.775   9.956  17.452  0.00  0.00    -0.368 OA
ATOM     13  C12 non d   1      -7.128   9.118  18.556  0.00  0.00     0.191 C 
ATOM     14  C13 non d   1      -8.413   9.559  19.235  0.00  0.00     0.026 A 
ATOM     15  C14 non d   1      -8.889  10.837  19.226  0.00  0.00     0.125 A 
ENDROOT
BRANCH   2  16
ATOM     16  O2  non d   1     -12.016  10.473  21.048  0.00  0.00    -0.272 OA
BRANCH  16  17
ATOM     17  C21 non d   1     -12.532   9.419  21.754  0.00  0.00     0.298 C 
ATOM     18  O12 non d   1     -13.342   8.593  21.354  0.00  0.00    -0.259 OA
BRANCH  17  19
ATOM     19  C16 non d   1     -11.920   9.374  23.121  0.00  0.00     0.042 A 
ATOM     20  C15 non d   1     -11.351   8.251  23.622  0.00  0.00     0.053 A 
ATOM     21  C20 non d   1     -10.812   8.292  24.860  0.00  0.00     0.103 A 
ATOM     22  C19 non d   1     -10.825   9.418  25.603  0.00  0.00     0.036 A 
ATOM     23  C18 non d   1     -11.389  10.531  25.091  0.00  0.00     0.003 A 
ATOM     24  C17 non d   1     -11.932  10.510  23.855  0.00  0.00     0.018 A 
BRANCH  21  25
ATOM     25  N1  non d   1     -10.190   7.079  25.406  0.00  0.00    -0.116 N 
ATOM     26  O10 non d   1     -10.188   6.060  24.700  0.00  0.00    -0.532 OA
ATOM     27  O11 non d   1      -9.699   7.139  26.544  0.00  0.00    -0.532 OA
ENDBRANCH  21  25
ENDBRANCH  17  19
ENDBRANCH  16  17
ENDBRANCH   2  16
BRANCH   1  28
ATOM     28  O1  non d   1     -10.540  12.453  19.799  0.00  0.00    -0.351 OA
ATOM     29  C1  non d   1     -11.340  12.671  18.634  0.00  0.00     0.210 C 
ENDBRANCH   1  28
BRANCH  15  30
ATOM     30  O9  non d   1      -8.202  11.878  18.558  0.00  0.00    -0.271 OA
BRANCH  30  31
ATOM     31  C28 non d   1      -7.219  12.473  19.296  0.00  0.00     0.298 C 
ATOM     32  O15 non d   1      -7.115  12.450  20.517  0.00  0.00    -0.259 OA
BRANCH  31  33
ATOM     33  C23 non d   1      -6.231  13.152  18.395  0.00  0.00     0.042 A 
ATOM     34  C22 non d   1      -4.917  13.035  18.705  0.00  0.00     0.053 A 
ATOM     35  C27 non d   1      -4.002  13.629  17.911  0.00  0.00     0.103 A 
ATOM     36  C26 non d   1      -4.364  14.335  16.820  0.00  0.00     0.036 A 
ATOM     37  C25 non d   1      -5.674  14.447  16.520  0.00  0.00     0.003 A 
ATOM     38  C24 non d   1      -6.604  13.860  17.303  0.00  0.00     0.018 A 
BRANCH  35  39
ATOM     39  N2  non d   1      -2.576  13.504  18.239  0.00  0.00    -0.116 N 
ATOM     40  O13 non d   1      -2.146  14.137  19.213  0.00  0.00    -0.532 OA
ATOM     41  O14 non d   1      -1.878  12.774  17.519  0.00  0.00    -0.532 OA
ENDBRANCH  35  39
ENDBRANCH  31  33
ENDBRANCH  30  31
ENDBRANCH  15  30
BRANCH  11  42
ATOM     42  C11 non d   1      -5.221  10.601  15.747  0.00  0.00     0.198 C 
BRANCH  42  43
ATOM     43  O7  non d   1      -3.831  10.930  15.723  0.00  0.00    -0.398 OA
ATOM     44  H13 non d   1      -3.539  10.776  14.804  0.00  0.00     0.209 HD
ENDBRANCH  42  43
ENDBRANCH  11  42
BRANCH   9  45
ATOM     45  O5  non d   1      -6.230   5.890  16.832  0.00  0.00    -0.390 OA
ATOM     46  H7  non d   1      -5.367   5.619  16.463  0.00  0.00     0.210 HD
ENDBRANCH   9  45
BRANCH  10  47
ATOM     47  O6  non d   1      -4.268   7.734  15.879  0.00  0.00    -0.390 OA
ATOM     48  H9  non d   1      -3.865   8.529  15.474  0.00  0.00     0.210 HD
ENDBRANCH  10  47
TORSDOF 13
ENDMDL
MODEL 5
REMARK VINA RESULT:    -8.743      2.604      7.927
REMARK INTER + INTRA:         -16.498
REMARK INTER:                 -14.836
REMARK INTRA:                  -1.662
REMARK UNBOUND:                -1.877
REMARK  13 active torsions:
REMARK  status: ('A' for Active; 'I' for Inactive)
REMARK    1  A    between atoms: O1_2  and  C2_3 
REMARK    2  A    between atoms: C3_4  and  O2_5 
REMARK    3  A    between atoms: C21_33  and  O2_5 
REMARK    4  A    between atoms: C8_12  and  O5_13 
REMARK    5  A    between atoms: C9_14  and  O6_15 
REMARK    6  A    between atoms: C10_16  and  C11_17 
REMARK    7  A    between atoms: C11_17  and  O7_18 
REMARK    8  A    between atoms: C14_22  and  O9_23 
REMARK    9  A    between atoms: C28_44  and  O9_23 
REMARK   10  A    between atoms: C16_25  and  C21_33 
REMARK   11  A    between atoms: C20_29  and  N1_30 
REMARK   12  A    between atoms: C23_36  and  C28_44 
REMARK   13  A    between atoms: C27_40  and  N2_41 
ROOT
ATOM      1  C2  non d   1     -10.036   8.449  19.863  0.00  0.00     0.137 A 
ATOM      2  C3  non d   1     -11.226   8.982  20.230  0.00  0.00     0.116 A 
ATOM      3  C4  non d   1     -11.552  10.230  19.840  0.00  0.00     0.058 A 
ATOM      4  C5  non d   1     -10.678  10.970  19.126  0.00  0.00     0.054 A 
ATOM      5  C6  non d   1     -11.124  12.342  18.727  0.00  0.00     0.294 C 
ATOM      6  O3  non d   1     -12.295  12.696  18.772  0.00  0.00    -0.259 OA
ATOM      7  O4  non d   1     -10.158  13.188  18.280  0.00  0.00    -0.306 OA
ATOM      8  C7  non d   1      -8.784  12.819  18.481  0.00  0.00     0.197 C 
ATOM      9  C8  non d   1      -7.906  13.780  17.682  0.00  0.00     0.181 C 
ATOM     10  C9  non d   1      -6.432  13.371  17.772  0.00  0.00     0.180 C 
ATOM     11  C10 non d   1      -6.269  11.886  17.415  0.00  0.00     0.177 C 
ATOM     12  O8  non d   1      -7.151  11.068  18.214  0.00  0.00    -0.368 OA
ATOM     13  C12 non d   1      -8.529  11.389  18.008  0.00  0.00     0.191 C 
ATOM     14  C13 non d   1      -9.463  10.471  18.779  0.00  0.00     0.026 A 
ATOM     15  C14 non d   1      -9.152   9.197  19.155  0.00  0.00     0.125 A 
ENDROOT
BRANCH   2  16
ATOM     16  O2  non d   1     -12.134   8.226  20.998  0.00  0.00    -0.272 OA
BRANCH  16  17
ATOM     17  C21 non d   1     -12.838   8.990  21.889  0.00  0.00     0.298 C 
ATOM     18  O12 non d   1     -13.936   9.502  21.712  0.00  0.00    -0.259 OA
BRANCH  17  19
ATOM     19  C16 non d   1     -12.085   9.090  23.180  0.00  0.00     0.042 A 
ATOM     20  C15 non d   1     -11.464   8.024  23.740  0.00  0.00     0.053 A 
ATOM     21  C20 non d   1     -10.797   8.194  24.901  0.00  0.00     0.103 A 
ATOM     22  C19 non d   1     -10.732   9.395  25.512  0.00  0.00     0.036 A 
ATOM     23  C18 non d   1     -11.350  10.451  24.943  0.00  0.00     0.003 A 
ATOM     24  C17 non d   1     -12.021  10.300  23.782  0.00  0.00     0.018 A 
BRANCH  21  25
ATOM     25  N1  non d   1     -10.119   7.043  25.510  0.00  0.00    -0.116 N 
ATOM     26  O10 non d   1     -10.045   5.997  24.847  0.00  0.00    -0.532 OA
ATOM     27  O11 non d   1      -9.656   7.177  26.652  0.00  0.00    -0.532 OA
ENDBRANCH  21  25
ENDBRANCH  17  19
ENDBRANCH  16  17
ENDBRANCH   2  16
BRANCH   1  28
ATOM     28  O1  non d   1      -9.690   7.158  20.258  0.00  0.00    -0.351 OA
ATOM     29  C1  non d   1      -9.125   7.155  21.572  0.00  0.00     0.210 C 
ENDBRANCH   1  28
BRANCH  15  30
ATOM     30  O9  non d   1      -7.897   8.620  18.850  0.00  0.00    -0.271 OA
BRANCH  30  31
ATOM     31  C28 non d   1      -7.901   7.803  17.756  0.00  0.00     0.298 C 
ATOM     32  O15 non d   1      -8.890   7.404  17.153  0.00  0.00    -0.259 OA
BRANCH  31  33
ATOM     33  C23 non d   1      -6.496   7.469  17.351  0.00  0.00     0.042 A 
ATOM     34  C22 non d   1      -5.968   6.312  17.817  0.00  0.00     0.053 A 
ATOM     35  C27 non d   1      -4.708   5.980  17.466  0.00  0.00     0.103 A 
ATOM     36  C26 non d   1      -3.965   6.771  16.664  0.00  0.00     0.036 A 
ATOM     37  C25 non d   1      -4.499   7.921  16.205  0.00  0.00     0.003 A 
ATOM     38  C24 non d   1      -5.757   8.270  16.547  0.00  0.00     0.018 A 
BRANCH  35  39
ATOM     39  N2  non d   1      -4.130   4.726  17.965  0.00  0.00    -0.116 N 
ATOM     40  O13 non d   1      -2.968   4.752  18.394  0.00  0.00    -0.532 OA
ATOM     41  O14 non d   1      -4.835   3.706  17.925  0.00  0.00    -0.532 OA
ENDBRANCH  35  39
ENDBRANCH  31  33
ENDBRANCH  30  31
ENDBRANCH  15  30
BRANCH  11  42
ATOM     42  C11 non d   1      -4.840  11.393  17.675  0.00  0.00     0.198 C 
BRANCH  42  43
ATOM     43  O7  non d   1      -4.009  11.657  16.542  0.00  0.00    -0.398 OA
ATOM     44  H13 non d   1      -4.202  10.947  15.901  0.00  0.00     0.209 HD
ENDBRANCH  42  43
ENDBRANCH  11  42
BRANCH   9  45
ATOM     45  O5  non d   1      -8.039  15.121  18.178  0.00  0.00    -0.390 OA
ATOM     46  H7  non d   1      -8.153  15.050  19.146  0.00  0.00     0.210 HD
ENDBRANCH   9  45
BRANCH  10  47
ATOM     47  O6  non d   1      -5.675  14.188  16.875  0.00  0.00    -0.390 OA
ATOM     48  H9  non d   1      -5.122  14.758  17.449  0.00  0.00     0.210 HD
ENDBRANCH  10  47
TORSDOF 13
ENDMDL
MODEL 6
REMARK VINA RESULT:    -8.735      2.768      6.154
REMARK INTER + INTRA:         -16.484
REMARK INTER:                 -15.350
REMARK INTRA:                  -1.134
REMARK UNBOUND:                -1.877
REMARK  13 active torsions:
REMARK  status: ('A' for Active; 'I' for Inactive)
REMARK    1  A    between atoms: O1_2  and  C2_3 
REMARK    2  A    between atoms: C3_4  and  O2_5 
REMARK    3  A    between atoms: C21_33  and  O2_5 
REMARK    4  A    between atoms: C8_12  and  O5_13 
REMARK    5  A    between atoms: C9_14  and  O6_15 
REMARK    6  A    between atoms: C10_16  and  C11_17 
REMARK    7  A    between atoms: C11_17  and  O7_18 
REMARK    8  A    between atoms: C14_22  and  O9_23 
REMARK    9  A    between atoms: C28_44  and  O9_23 
REMARK   10  A    between atoms: C16_25  and  C21_33 
REMARK   11  A    between atoms: C20_29  and  N1_30 
REMARK   12  A    between atoms: C23_36  and  C28_44 
REMARK   13  A    between atoms: C27_40  and  N2_41 
ROOT
ATOM      1  C2  non d   1      -6.442   8.873  18.257  0.00  0.00     0.137 A 
ATOM      2  C3  non d   1      -6.312   7.624  18.763  0.00  0.00     0.116 A 
ATOM      3  C4  non d   1      -7.301   7.095  19.510  0.00  0.00     0.058 A 
ATOM      4  C5  non d   1      -8.400   7.823  19.797  0.00  0.00     0.054 A 
ATOM      5  C6  non d   1      -9.454   7.156  20.624  0.00  0.00     0.294 C 
ATOM      6  O3  non d   1      -9.487   5.945  20.802  0.00  0.00    -0.259 OA
ATOM      7  O4  non d   1     -10.406   7.965  21.162  0.00  0.00    -0.306 OA
ATOM      8  C7  non d   1     -10.186   9.385  21.137  0.00  0.00     0.197 C 
ATOM      9  C8  non d   1     -11.481  10.080  21.554  0.00  0.00     0.181 C 
ATOM     10  C9  non d   1     -11.338  11.602  21.445  0.00  0.00     0.180 C 
ATOM     11  C10 non d   1     -10.807  11.988  20.057  0.00  0.00     0.177 C 
ATOM     12  O8  non d   1      -9.593  11.267  19.755  0.00  0.00    -0.368 OA
ATOM     13  C12 non d   1      -9.790   9.851  19.737  0.00  0.00     0.191 C 
ATOM     14  C13 non d   1      -8.536   9.093  19.333  0.00  0.00     0.026 A 
ATOM     15  C14 non d   1      -7.542   9.610  18.555  0.00  0.00     0.125 A 
ENDROOT
BRANCH   2  16
ATOM     16  O2  non d   1      -5.156   6.865  18.490  0.00  0.00    -0.272 OA
BRANCH  16  17
ATOM     17  C21 non d   1      -5.356   5.930  17.509  0.00  0.00     0.298 C 
ATOM     18  O12 non d   1      -6.317   5.849  16.757  0.00  0.00    -0.259 OA
BRANCH  17  19
ATOM     19  C16 non d   1      -4.179   5.005  17.441  0.00  0.00     0.042 A 
ATOM     20  C15 non d   1      -4.198   3.862  16.714  0.00  0.00     0.053 A 
ATOM     21  C20 non d   1      -3.095   3.085  16.694  0.00  0.00     0.103 A 
ATOM     22  C19 non d   1      -1.979   3.419  17.375  0.00  0.00     0.036 A 
ATOM     23  C18 non d   1      -1.969   4.563  18.091  0.00  0.00     0.003 A 
ATOM     24  C17 non d   1      -3.063   5.354  18.122  0.00  0.00     0.018 A 
BRANCH  21  25
ATOM     25  N1  non d   1      -3.109   1.847  15.905  0.00  0.00    -0.116 N 
ATOM     26  O10 non d   1      -2.085   1.147  15.906  0.00  0.00    -0.532 OA
ATOM     27  O11 non d   1      -4.143   1.566  15.282  0.00  0.00    -0.532 OA
ENDBRANCH  21  25
ENDBRANCH  17  19
ENDBRANCH  16  17
ENDBRANCH   2  16
BRANCH   1  28
ATOM     28  O1  non d   1      -5.426   9.429  17.481  0.00  0.00    -0.351 OA
ATOM     29  C1  non d   1      -5.684   9.247  16.086  0.00  0.00     0.210 C 
ENDBRANCH   1  28
BRANCH  15  30
ATOM     30  O9  non d   1      -7.603  10.933  18.057  0.00  0.00    -0.271 OA
BRANCH  30  31
ATOM     31  C28 non d   1      -6.714  11.796  18.632  0.00  0.00     0.298 C 
ATOM     32  O15 non d   1      -6.536  11.958  19.833  0.00  0.00    -0.259 OA
BRANCH  31  33
ATOM     33  C23 non d   1      -5.936  12.522  17.576  0.00  0.00     0.042 A 
ATOM     34  C22 non d   1      -4.587  12.551  17.701  0.00  0.00     0.053 A 
ATOM     35  C27 non d   1      -3.858  13.192  16.763  0.00  0.00     0.103 A 
ATOM     36  C26 non d   1      -4.438  13.802  15.709  0.00  0.00     0.036 A 
ATOM     37  C25 non d   1      -5.782  13.768  15.593  0.00  0.00     0.003 A 
ATOM     38  C24 non d   1      -6.528  13.133  16.522  0.00  0.00     0.018 A 
BRANCH  35  39
ATOM     39  N2  non d   1      -2.395  13.225  16.890  0.00  0.00    -0.116 N 
ATOM     40  O13 non d   1      -1.904  13.006  18.007  0.00  0.00    -0.532 OA
ATOM     41  O14 non d   1      -1.731  13.475  15.874  0.00  0.00    -0.532 OA
ENDBRANCH  35  39
ENDBRANCH  31  33
ENDBRANCH  30  31
ENDBRANCH  15  30
BRANCH  11  42
ATOM     42  C11 non d   1     -10.474  13.483  19.972  0.00  0.00     0.198 C 
BRANCH  42  43
ATOM     43  O7  non d   1     -10.590  14.093  21.259  0.00  0.00    -0.398 OA
ATOM     44  H13 non d   1     -11.479  13.857  21.585  0.00  0.00     0.209 HD
ENDBRANCH  42  43
ENDBRANCH  11  42
BRANCH   9  45
ATOM     45  O5  non d   1     -11.820   9.749  22.910  0.00  0.00    -0.390 OA
ATOM     46  H7  non d   1     -11.771  10.580  23.422  0.00  0.00     0.210 HD
ENDBRANCH   9  45
BRANCH  10  47
ATOM     47  O6  non d   1     -12.618  12.198  21.675  0.00  0.00    -0.390 OA
ATOM     48  H9  non d   1     -12.602  12.491  22.610  0.00  0.00     0.210 HD
ENDBRANCH  10  47
TORSDOF 13
ENDMDL
MODEL 7
REMARK VINA RESULT:    -8.710      3.124      6.838
REMARK INTER + INTRA:         -16.442
REMARK INTER:                 -14.775
REMARK INTRA:                  -1.667
REMARK UNBOUND:                -1.877
REMARK  13 active torsions:
REMARK  status: ('A' for Active; 'I' for Inactive)
REMARK    1  A    between atoms: O1_2  and  C2_3 
REMARK    2  A    between atoms: C3_4  and  O2_5 
REMARK    3  A    between atoms: C21_33  and  O2_5 
REMARK    4  A    between atoms: C8_12  and  O5_13 
REMARK    5  A    between atoms: C9_14  and  O6_15 
REMARK    6  A    between atoms: C10_16  and  C11_17 
REMARK    7  A    between atoms: C11_17  and  O7_18 
REMARK    8  A    between atoms: C14_22  and  O9_23 
REMARK    9  A    between atoms: C28_44  and  O9_23 
REMARK   10  A    between atoms: C16_25  and  C21_33 
REMARK   11  A    between atoms: C20_29  and  N1_30 
REMARK   12  A    between atoms: C23_36  and  C28_44 
REMARK   13  A    between atoms: C27_40  and  N2_41 
ROOT
ATOM      1  C2  non d   1      -9.484   9.835  19.109  0.00  0.00     0.137 A 
ATOM      2  C3  non d   1      -8.773   8.744  18.737  0.00  0.00     0.116 A 
ATOM      3  C4  non d   1      -8.742   7.658  19.534  0.00  0.00     0.058 A 
ATOM      4  C5  non d   1      -9.377   7.670  20.725  0.00  0.00     0.054 A 
ATOM      5  C6  non d   1      -9.299   6.420  21.544  0.00  0.00     0.294 C 
ATOM      6  O3  non d   1      -8.944   5.345  21.077  0.00  0.00    -0.259 OA
ATOM      7  O4  non d   1      -9.671   6.524  22.848  0.00  0.00    -0.306 OA
ATOM      8  C7  non d   1      -9.835   7.838  23.406  0.00  0.00     0.197 C 
ATOM      9  C8  non d   1     -10.491   7.700  24.778  0.00  0.00     0.181 C 
ATOM     10  C9  non d   1     -10.789   9.077  25.378  0.00  0.00     0.180 C 
ATOM     11  C10 non d   1     -11.560   9.942  24.370  0.00  0.00     0.177 C 
ATOM     12  O8  non d   1     -10.864   9.996  23.106  0.00  0.00    -0.368 OA
ATOM     13  C12 non d   1     -10.717   8.705  22.508  0.00  0.00     0.191 C 
ATOM     14  C13 non d   1     -10.065   8.767  21.137  0.00  0.00     0.026 A 
ATOM     15  C14 non d   1     -10.113   9.852  20.312  0.00  0.00     0.125 A 
ENDROOT
BRANCH   2  16
ATOM     16  O2  non d   1      -8.085   8.732  17.507  0.00  0.00    -0.272 OA
BRANCH  16  17
ATOM     17  C21 non d   1      -7.898   7.467  17.018  0.00  0.00     0.298 C 
ATOM     18  O12 non d   1      -8.765   6.693  16.633  0.00  0.00    -0.259 OA
BRANCH  17  19
ATOM     19  C16 non d   1      -6.435   7.152  16.966  0.00  0.00     0.042 A 
ATOM     20  C15 non d   1      -5.928   5.988  17.436  0.00  0.00     0.053 A 
ATOM     21  C20 non d   1      -4.597   5.773  17.347  0.00  0.00     0.103 A 
ATOM     22  C19 non d   1      -3.767   6.685  16.801  0.00  0.00     0.036 A 
ATOM     23  C18 non d   1      -4.283   7.839  16.331  0.00  0.00     0.003 A 
ATOM     24  C17 non d   1      -5.611   8.071  16.411  0.00  0.00     0.018 A 
BRANCH  21  25
ATOM     25  N1  non d   1      -4.044   4.510  17.851  0.00  0.00    -0.116 N 
ATOM     26  O10 non d   1      -4.732   3.486  17.730  0.00  0.00    -0.532 OA
ATOM     27  O11 non d   1      -2.917   4.534  18.369  0.00  0.00    -0.532 OA
ENDBRANCH  21  25
ENDBRANCH  17  19
ENDBRANCH  16  17
ENDBRANCH   2  16
BRANCH   1  28
ATOM     28  O1  non d   1      -9.525  10.963  18.290  0.00  0.00    -0.351 OA
ATOM     29  C1  non d   1      -8.410  11.822  18.540  0.00  0.00     0.210 C 
ENDBRANCH   1  28
BRANCH  15  30
ATOM     30  O9  non d   1     -10.790  11.037  20.684  0.00  0.00    -0.271 OA
BRANCH  30  31
ATOM     31  C28 non d   1     -12.084  11.110  20.253  0.00  0.00     0.298 C 
ATOM     32  O15 non d   1     -12.962  10.279  20.455  0.00  0.00    -0.259 OA
BRANCH  31  33
ATOM     33  C23 non d   1     -12.313  12.389  19.505  0.00  0.00     0.042 A 
ATOM     34  C22 non d   1     -11.523  13.445  19.815  0.00  0.00     0.053 A 
ATOM     35  C27 non d   1     -11.700  14.609  19.155  0.00  0.00     0.103 A 
ATOM     36  C26 non d   1     -12.642  14.745  18.199  0.00  0.00     0.036 A 
ATOM     37  C25 non d   1     -13.425  13.688  17.899  0.00  0.00     0.003 A 
ATOM     38  C24 non d   1     -13.263  12.516  18.549  0.00  0.00     0.018 A 
BRANCH  35  39
ATOM     39  N2  non d   1     -10.845  15.757  19.482  0.00  0.00    -0.116 N 
ATOM     40  O13 non d   1     -11.393  16.797  19.874  0.00  0.00    -0.532 OA
ATOM     41  O14 non d   1      -9.620  15.625  19.345  0.00  0.00    -0.532 OA
ENDBRANCH  35  39
ENDBRANCH  31  33
ENDBRANCH  30  31
ENDBRANCH  15  30
BRANCH  11  42
ATOM     42  C11 non d   1     -11.713  11.387  24.860  0.00  0.00     0.198 C 
BRANCH  42  43
ATOM     43  O7  non d   1     -11.129  11.538  26.156  0.00  0.00    -0.398 OA
ATOM     44  H13 non d   1     -10.679  10.692  26.344  0.00  0.00     0.209 HD
ENDBRANCH  42  43
ENDBRANCH  11  42
BRANCH   9  45
ATOM     45  O5  non d   1      -9.634   6.984  25.680  0.00  0.00    -0.390 OA
ATOM     46  H7  non d   1      -9.693   7.438  26.543  0.00  0.00     0.210 HD
ENDBRANCH   9  45
BRANCH  10  47
ATOM     47  O6  non d   1     -11.555   8.900  26.573  0.00  0.00    -0.390 OA
ATOM     48  H9  non d   1     -12.341   9.473  26.464  0.00  0.00     0.210 HD
ENDBRANCH  10  47
TORSDOF 13
ENDMDL
MODEL 8
REMARK VINA RESULT:    -8.646      3.225      8.504
REMARK INTER + INTRA:         -16.335
REMARK INTER:                 -14.932
REMARK INTRA:                  -1.403
REMARK UNBOUND:                -1.877
REMARK  13 active torsions:
REMARK  status: ('A' for Active; 'I' for Inactive)
REMARK    1  A    between atoms: O1_2  and  C2_3 
REMARK    2  A    between atoms: C3_4  and  O2_5 
REMARK    3  A    between atoms: C21_33  and  O2_5 
REMARK    4  A    between atoms: C8_12  and  O5_13 
REMARK    5  A    between atoms: C9_14  and  O6_15 
REMARK    6  A    between atoms: C10_16  and  C11_17 
REMARK    7  A    between atoms: C11_17  and  O7_18 
REMARK    8  A    between atoms: C14_22  and  O9_23 
REMARK    9  A    between atoms: C28_44  and  O9_23 
REMARK   10  A    between atoms: C16_25  and  C21_33 
REMARK   11  A    between atoms: C20_29  and  N1_30 
REMARK   12  A    between atoms: C23_36  and  C28_44 
REMARK   13  A    between atoms: C27_40  and  N2_41 
ROOT
ATOM      1  C2  non d   1      -9.738  10.810  19.890  0.00  0.00     0.137 A 
ATOM      2  C3  non d   1     -10.418   9.829  20.530  0.00  0.00     0.116 A 
ATOM      3  C4  non d   1      -9.936   8.571  20.536  0.00  0.00     0.058 A 
ATOM      4  C5  non d   1      -8.803   8.273  19.866  0.00  0.00     0.054 A 
ATOM      5  C6  non d   1      -8.332   6.854  19.933  0.00  0.00     0.294 C 
ATOM      6  O3  non d   1      -8.753   6.056  20.761  0.00  0.00    -0.259 OA
ATOM      7  O4  non d   1      -7.381   6.487  19.033  0.00  0.00    -0.306 OA
ATOM      8  C7  non d   1      -7.106   7.372  17.934  0.00  0.00     0.197 C 
ATOM      9  C8  non d   1      -5.849   6.877  17.221  0.00  0.00     0.181 C 
ATOM     10  C9  non d   1      -5.445   7.842  16.102  0.00  0.00     0.180 C 
ATOM     11  C10 non d   1      -5.369   9.278  16.641  0.00  0.00     0.177 C 
ATOM     12  O8  non d   1      -6.597   9.641  17.307  0.00  0.00    -0.368 OA
ATOM     13  C12 non d   1      -6.879   8.799  18.428  0.00  0.00     0.191 C 
ATOM     14  C13 non d   1      -8.124   9.233  19.184  0.00  0.00     0.026 A 
ATOM     15  C14 non d   1      -8.605  10.509  19.206  0.00  0.00     0.125 A 
ENDROOT
BRANCH   2  16
ATOM     16  O2  non d   1     -11.616  10.126  21.210  0.00  0.00    -0.272 OA
BRANCH  16  17
ATOM     17  C21 non d   1     -12.185   9.021  21.785  0.00  0.00     0.298 C 
ATOM     18  O12 non d   1     -13.049   8.303  21.299  0.00  0.00    -0.259 OA
BRANCH  17  19
ATOM     19  C16 non d   1     -11.560   8.763  23.122  0.00  0.00     0.042 A 
ATOM     20  C15 non d   1     -11.631   9.656  24.138  0.00  0.00     0.053 A 
ATOM     21  C20 non d   1     -11.050   9.348  25.317  0.00  0.00     0.103 A 
ATOM     22  C19 non d   1     -10.406   8.178  25.507  0.00  0.00     0.036 A 
ATOM     23  C18 non d   1     -10.347   7.293  24.489  0.00  0.00     0.003 A 
ATOM     24  C17 non d   1     -10.923   7.583  23.303  0.00  0.00     0.018 A 
BRANCH  21  25
ATOM     25  N1  non d   1     -11.127  10.311  26.423  0.00  0.00    -0.116 N 
ATOM     26  O10 non d   1     -11.143   9.864  27.580  0.00  0.00    -0.532 OA
ATOM     27  O11 non d   1     -11.171  11.518  26.142  0.00  0.00    -0.532 OA
ENDBRANCH  21  25
ENDBRANCH  17  19
ENDBRANCH  16  17
ENDBRANCH   2  16
BRANCH   1  28
ATOM     28  O1  non d   1     -10.227  12.116  19.879  0.00  0.00    -0.351 OA
ATOM     29  C1  non d   1     -11.192  12.296  18.840  0.00  0.00     0.210 C 
ENDBRANCH   1  28
BRANCH  15  30
ATOM     30  O9  non d   1      -7.965  11.555  18.500  0.00  0.00    -0.271 OA
BRANCH  30  31
ATOM     31  C28 non d   1      -7.000  12.210  19.211  0.00  0.00     0.298 C 
ATOM     32  O15 non d   1      -6.910  12.263  20.432  0.00  0.00    -0.259 OA
BRANCH  31  33
ATOM     33  C23 non d   1      -6.013  12.851  18.282  0.00  0.00     0.042 A 
ATOM     34  C22 non d   1      -4.716  12.882  18.670  0.00  0.00     0.053 A 
ATOM     35  C27 non d   1      -3.802  13.446  17.853  0.00  0.00     0.103 A 
ATOM     36  C26 non d   1      -4.149  13.979  16.663  0.00  0.00     0.036 A 
ATOM     37  C25 non d   1      -5.444  13.945  16.286  0.00  0.00     0.003 A 
ATOM     38  C24 non d   1      -6.372  13.385  17.090  0.00  0.00     0.018 A 
BRANCH  35  39
ATOM     39  N2  non d   1      -2.393  13.481  18.266  0.00  0.00    -0.116 N 
ATOM     40  O13 non d   1      -2.078  14.237  19.196  0.00  0.00    -0.532 OA
ATOM     41  O14 non d   1      -1.593  12.754  17.658  0.00  0.00    -0.532 OA
ENDBRANCH  35  39
ENDBRANCH  31  33
ENDBRANCH  30  31
ENDBRANCH  15  30
BRANCH  11  42
ATOM     42  C11 non d   1      -5.150  10.297  15.514  0.00  0.00     0.198 C 
BRANCH  42  43
ATOM     43  O7  non d   1      -3.780  10.701  15.467  0.00  0.00    -0.398 OA
ATOM     44  H13 non d   1      -3.729  11.378  14.765  0.00  0.00     0.209 HD
ENDBRANCH  42  43
ENDBRANCH  11  42
BRANCH   9  45
ATOM     45  O5  non d   1      -6.070   5.579  16.647  0.00  0.00    -0.390 OA
ATOM     46  H7  non d   1      -5.198   5.138  16.610  0.00  0.00     0.210 HD
ENDBRANCH   9  45
BRANCH  10  47
ATOM     47  O6  non d   1      -4.177   7.434  15.582  0.00  0.00    -0.390 OA
ATOM     48  H9  non d   1      -4.205   6.455  15.569  0.00  0.00     0.210 HD
ENDBRANCH  10  47
TORSDOF 13
ENDMDL
MODEL 9
REMARK VINA RESULT:    -8.598      3.191      8.115
REMARK INTER + INTRA:         -16.255
REMARK INTER:                 -14.478
REMARK INTRA:                  -1.777
REMARK UNBOUND:                -1.877
REMARK  13 active torsions:
REMARK  status: ('A' for Active; 'I' for Inactive)
REMARK    1  A    between atoms: O1_2  and  C2_3 
REMARK    2  A    between atoms: C3_4  and  O2_5 
REMARK    3  A    between atoms: C21_33  and  O2_5 
REMARK    4  A    between atoms: C8_12  and  O5_13 
REMARK    5  A    between atoms: C9_14  and  O6_15 
REMARK    6  A    between atoms: C10_16  and  C11_17 
REMARK    7  A    between atoms: C11_17  and  O7_18 
REMARK    8  A    between atoms: C14_22  and  O9_23 
REMARK    9  A    between atoms: C28_44  and  O9_23 
REMARK   10  A    between atoms: C16_25  and  C21_33 
REMARK   11  A    between atoms: C20_29  and  N1_30 
REMARK   12  A    between atoms: C23_36  and  C28_44 
REMARK   13  A    between atoms: C27_40  and  N2_41 
ROOT
ATOM      1  C2  non d   1     -10.062  11.171  19.900  0.00  0.00     0.137 A 
ATOM      2  C3  non d   1     -10.803  10.184  20.458  0.00  0.00     0.116 A 
ATOM      3  C4  non d   1     -10.350   8.915  20.450  0.00  0.00     0.058 A 
ATOM      4  C5  non d   1      -9.182   8.614  19.844  0.00  0.00     0.054 A 
ATOM      5  C6  non d   1      -8.748   7.183  19.888  0.00  0.00     0.294 C 
ATOM      6  O3  non d   1      -9.240   6.367  20.658  0.00  0.00    -0.259 OA
ATOM      7  O4  non d   1      -7.748   6.825  19.039  0.00  0.00    -0.306 OA
ATOM      8  C7  non d   1      -7.383   7.741  17.993  0.00  0.00     0.197 C 
ATOM      9  C8  non d   1      -6.093   7.241  17.346  0.00  0.00     0.181 C 
ATOM     10  C9  non d   1      -5.595   8.236  16.292  0.00  0.00     0.180 C 
ATOM     11  C10 non d   1      -5.523   9.650  16.886  0.00  0.00     0.177 C 
ATOM     12  O8  non d   1      -6.785  10.019  17.484  0.00  0.00    -0.368 OA
ATOM     13  C12 non d   1      -7.158   9.144  18.553  0.00  0.00     0.191 C 
ATOM     14  C13 non d   1      -8.440   9.581  19.243  0.00  0.00     0.026 A 
ATOM     15  C14 non d   1      -8.893  10.867  19.280  0.00  0.00     0.125 A 
ENDROOT
BRANCH   2  16
ATOM     16  O2  non d   1     -12.037  10.485  21.070  0.00  0.00    -0.272 OA
BRANCH  16  17
ATOM     17  C21 non d   1     -12.550   9.429  21.775  0.00  0.00     0.298 C 
ATOM     18  O12 non d   1     -13.365   8.607  21.378  0.00  0.00    -0.259 OA
BRANCH  17  19
ATOM     19  C16 non d   1     -11.926   9.375  23.136  0.00  0.00     0.042 A 
ATOM     20  C15 non d   1     -11.342   8.253  23.621  0.00  0.00     0.053 A 
ATOM     21  C20 non d   1     -10.793   8.285  24.855  0.00  0.00     0.103 A 
ATOM     22  C19 non d   1     -10.810   9.403  25.609  0.00  0.00     0.036 A 
ATOM     23  C18 non d   1     -11.390  10.517  25.114  0.00  0.00     0.003 A 
ATOM     24  C17 non d   1     -11.943  10.504  23.883  0.00  0.00     0.018 A 
BRANCH  21  25
ATOM     25  N1  non d   1     -10.156   7.073  25.383  0.00  0.00    -0.116 N 
ATOM     26  O10 non d   1      -9.690   7.117  26.532  0.00  0.00    -0.532 OA
ATOM     27  O11 non d   1     -10.118   6.070  24.655  0.00  0.00    -0.532 OA
ENDBRANCH  21  25
ENDBRANCH  17  19
ENDBRANCH  16  17
ENDBRANCH   2  16
BRANCH   1  28
ATOM     28  O1  non d   1     -10.521  12.487  19.906  0.00  0.00    -0.351 OA
ATOM     29  C1  non d   1     -11.325  12.758  18.755  0.00  0.00     0.210 C 
ENDBRANCH   1  28
BRANCH  15  30
ATOM     30  O9  non d   1      -8.186  11.921  18.656  0.00  0.00    -0.271 OA
BRANCH  30  31
ATOM     31  C28 non d   1      -7.337  12.601  19.483  0.00  0.00     0.298 C 
ATOM     32  O15 non d   1      -7.516  12.830  20.673  0.00  0.00    -0.259 OA
BRANCH  31  33
ATOM     33  C23 non d   1      -6.106  13.017  18.736  0.00  0.00     0.042 A 
ATOM     34  C22 non d   1      -6.275  13.730  17.597  0.00  0.00     0.053 A 
ATOM     35  C27 non d   1      -5.186  14.126  16.905  0.00  0.00     0.103 A 
ATOM     36  C26 non d   1      -3.937  13.828  17.320  0.00  0.00     0.036 A 
ATOM     37  C25 non d   1      -3.779  13.117  18.455  0.00  0.00     0.003 A 
ATOM     38  C24 non d   1      -4.856  12.712  19.160  0.00  0.00     0.018 A 
BRANCH  35  39
ATOM     39  N2  non d   1      -5.362  14.901  15.670  0.00  0.00    -0.116 N 
ATOM     40  O13 non d   1      -5.209  16.130  15.729  0.00  0.00    -0.532 OA
ATOM     41  O14 non d   1      -5.657  14.285  14.636  0.00  0.00    -0.532 OA
ENDBRANCH  35  39
ENDBRANCH  31  33
ENDBRANCH  30  31
ENDBRANCH  15  30
BRANCH  11  42
ATOM     42  C11 non d   1      -5.210  10.702  15.814  0.00  0.00     0.198 C 
BRANCH  42  43
ATOM     43  O7  non d   1      -3.809  10.721  15.529  0.00  0.00    -0.398 OA
ATOM     44  H13 non d   1      -3.672  11.478  14.929  0.00  0.00     0.209 HD
ENDBRANCH  42  43
ENDBRANCH  11  42
BRANCH   9  45
ATOM     45  O5  non d   1      -6.303   5.970  16.712  0.00  0.00    -0.390 OA
ATOM     46  H7  non d   1      -7.212   5.983  16.354  0.00  0.00     0.210 HD
ENDBRANCH   9  45
BRANCH  10  47
ATOM     47  O6  non d   1      -4.305   7.816  15.840  0.00  0.00    -0.390 OA
ATOM     48  H9  non d   1      -3.664   8.297  16.404  0.00  0.00     0.210 HD
ENDBRANCH  10  47
TORSDOF 13
ENDMDL
