@<TRIPOS>MOLECULE
result_docking1_4jir_Aldolase_derivate_acd51
 35 38 0 0 0
SMALL
GASTEIGER

@<TRIPOS>ATOM
      1 C         -13.7880   12.3350   23.1960 C.3     1  UNL1        0.1740
      2 C         -14.7120   12.4660   21.9720 C.3     1  UNL1        0.1704
      3 C         -13.2750   10.1270   22.2980 C.3     1  UNL1        0.1830
      4 C         -12.8910   10.9380   21.0590 C.3     1  UNL1        0.2293
      5 C         -13.9850   11.9630   20.7180 C.3     1  UNL1        0.1826
      6 O         -13.4490   10.9550   23.4630 O.3     1  UNL1       -0.3453
      7 C         -12.1700    9.0900   22.5080 C.ar    1  UNL1        0.0479
      8 C         -11.6460    8.4980   21.3980 C.ar    1  UNL1        0.0814
      9 C         -12.2750    8.8200   20.0760 C.2     1  UNL1        0.3411
     10 O         -12.7160   10.0920   19.9070 O.3     1  UNL1       -0.4437
     11 C         -10.6630    7.8580   23.8350 C.ar    1  UNL1        0.0451
     12 C         -11.6610    8.7650   23.7270 C.ar    1  UNL1        0.1311
     13 C         -10.0900    7.4780   25.1860 C.3     1  UNL1        0.0374
     14 O         -12.4150    7.9950   19.1840 O.2     1  UNL1       -0.2449
     15 C         -10.6140    7.6110   21.4850 C.ar    1  UNL1        0.0722
     16 C         -10.1490    7.2880   22.7220 C.ar    1  UNL1        0.1342
     17 C          -9.9160    6.9960   20.2630 C.3     1  UNL1        0.1362
     18 N          -8.6390    7.6530   19.9090 N.4     1  UNL1        0.2832
     19 C          -8.9020    8.7930   18.9930 C.3     1  UNL1        0.1384
     20 C          -7.6920    9.1160   18.1040 C.3     1  UNL1        0.2029
     21 O          -7.3660    8.0420   17.2130 O.3     1  UNL1       -0.3412
     22 C          -7.7080    6.7490   17.7370 C.3     1  UNL1        0.2029
     23 C          -7.6890    6.7040   19.2730 C.3     1  UNL1        0.1384
     24 O          -9.1350    6.3470   22.8710 O.3     1  UNL1       -0.5058
     25 O         -12.1560    9.3370   24.8890 O.3     1  UNL1       -0.5060
     26 O         -13.3700   13.0720   20.0450 O.3     1  UNL1       -0.3785
     27 C         -14.4330   12.8990   24.4680 C.3     1  UNL1        0.1692
     28 O         -15.3220   11.9410   25.0470 O.3     1  UNL1       -0.3794
     29 O         -15.8930   11.6710   22.1450 O.3     1  UNL1       -0.3794
     30 H          -8.2100    7.9908   20.7705 H       1  UNL1        0.2072
     31 H          -8.7616    5.9371   22.1157 H       1  UNL1        0.2922
     32 H         -12.8471    9.9680   24.8430 H       1  UNL1        0.2922
     33 H         -12.9102   12.7544   19.2521 H       1  UNL1        0.2106
     34 H         -15.7206   12.3133   25.8491 H       1  UNL1        0.2105
     35 H         -16.4631   11.7651   21.3659 H       1  UNL1        0.2105
@<TRIPOS>UNITY_ATOM_ATTR
18 1
charge 1
@<TRIPOS>BOND
     1    21    22    1
     2    21    20    1
     3    22    23    1
     4    20    19    1
     5    19    18    1
     6    14     9    2
     7    23    18    1
     8    10     9    1
     9    10     4    1
    10    18    17    1
    11    26     5    1
    12     9     8    1
    13    17    15    1
    14     5     4    1
    15     5     2    1
    16     4     3    1
    17     8    15   ar
    18     8     7   ar
    19    15    16   ar
    20     2    29    1
    21     2     1    1
    22     3     7    1
    23     3     6    1
    24     7    12   ar
    25    16    24    1
    26    16    11   ar
    27     1     6    1
    28     1    27    1
    29    12    11   ar
    30    12    25    1
    31    11    13    1
    32    27    28    1
    33    18    30    1
    34    24    31    1
    35    25    32    1
    36    26    33    1
    37    28    34    1
    38    29    35    1
