@<TRIPOS>MOLECULE
result_docking1_4jir_Aldolase_Clopidogrel
 22 24 0 0 0
SMALL
GASTEIGER

@<TRIPOS>ATOM
      1 C         -11.3260    9.5380   20.8680 C.3     1  UNL1        0.1793
      2 N         -10.3150    8.7870   20.1230 N.4     1  UNL1        0.2866
      3 C          -9.9310    7.5640   20.8590 C.3     1  UNL1        0.1117
      4 C          -9.0350    6.6540   19.9960 C.3     1  UNL1        0.0937
      5 C          -8.0050    7.4740   19.2900 C.2     1  UNL1        0.0147
      6 S          -6.6700    6.7990   18.4850 S.3     1  UNL1       -0.0907
      7 C          -8.0580    8.8490   19.1930 C.2     1  UNL1        0.0354
      8 C          -6.1260    8.3480   17.9940 C.2     1  UNL1        0.0350
      9 C          -6.9580    9.3550   18.4380 C.2     1  UNL1        0.0085
     10 C          -9.1440    9.6490   19.8480 C.3     1  UNL1        0.1337
     11 C         -11.5130   10.9270   20.2980 C.2     1  UNL1        0.0482
     12 C         -11.1320   12.0500   21.0140 C.2     1  UNL1        0.0595
     13 CL        -10.4270   11.9360   22.5850 Cl      1  UNL1       -0.0824
     14 C         -11.3210   13.3130   20.4550 C.2     1  UNL1        0.0113
     15 C         -11.8890   13.4380   19.1870 C.2     1  UNL1        0.0009
     16 C         -12.2680   12.2980   18.4770 C.2     1  UNL1       -0.0001
     17 C         -12.0780   11.0330   19.0370 C.2     1  UNL1        0.0026
     18 C         -12.6170    8.7360   20.8650 C.2     1  UNL1        0.3720
     19 O         -12.9950    8.0070   19.9570 O.2     1  UNL1       -0.2433
     20 O         -13.2810    8.9400   22.0450 O.3     1  UNL1       -0.4403
     21 C         -12.4600    8.9820   23.2160 C.3     1  UNL1        0.2558
     22 H         -10.7075    8.4946   19.2281 H       1  UNL1        0.2078
@<TRIPOS>UNITY_ATOM_ATTR
2 1
charge 1
@<TRIPOS>BOND
     1     8     9    2
     2     8     6    1
     3     9     7    1
     4    16    17    1
     5    16    15    2
     6     6     5    1
     7    17    11    2
     8    15    14    1
     9     7     5    2
    10     7    10    1
    11     5     4    1
    12    10     2    1
    13    19    18    2
    14     4     3    1
    15     2     3    1
    16     2     1    1
    17    11     1    1
    18    11    12    1
    19    14    12    2
    20    18     1    1
    21    18    20    1
    22    12    13    1
    23    20    21    1
    24     2    22    1
