@<TRIPOS>MOLECULE
result_docking1_4jir_Aldolase_bergenin_dft_6_311G
 28 30 0 0 0
SMALL
GASTEIGER

@<TRIPOS>ATOM
      1  O1        -7.4750    9.6560   17.9490 O.3     1  RES1       -0.3453
      2  O2        -7.6270    6.3210   19.4420 O.3     1  RES1       -0.4437
      3  O7        -9.1430    5.3680   20.7380 O.2     1  RES1       -0.2449
      4  C10       -7.4090    7.3230   18.4380 C.3     1  RES1        0.2293
      5  C11       -7.6790    8.7200   18.9950 C.3     1  RES1        0.1831
      6  C12       -5.9810    7.2200   17.9320 C.3     1  RES1        0.1826
      7  C13       -5.6770    8.3770   16.9670 C.3     1  RES1        0.1704
      8  C14       -6.1060    9.7290   17.5430 C.3     1  RES1        0.1740
      9  C15       -9.0890    8.7700   19.5200 C.2     1  RES1        0.0514
     10  C17       -9.6480    7.5750   20.0020 C.2     1  RES1        0.0802
     11  C18       -8.8240    6.3260   20.0880 C.2     1  RES1        0.3412
     12  C19       -9.8510    9.9360   19.6130 C.2     1  RES1        0.1693
     13  C20      -10.9350    7.5210   20.5320 C.2     1  RES1        0.0462
     14  C21      -11.1650    9.8680   20.0850 C.2     1  RES1        0.2053
     15  C22      -11.7010    8.6750   20.5660 C.2     1  RES1        0.1710
     16  C16       -6.0390   10.8850   16.5580 C.3     1  RES1        0.1692
     17  O5        -4.6950   11.2660   16.3150 O.3     1  RES1       -0.3794
     18  O4        -4.3020    8.3480   16.5820 O.3     1  RES1       -0.3794
     19  O3        -5.8010    5.9730   17.2910 O.3     1  RES1       -0.3785
     20  O6        -9.3430   11.1530   19.2670 O.2     1  RES1       -0.5029
     21  O8       -11.9110   11.0320   20.1560 O.2     1  RES1       -0.4654
     22  C23      -12.7000   11.2960   18.9720 C.3     1  RES1        0.2528
     23  O9       -12.9600    8.6390   21.0790 O.2     1  RES1       -0.5028
     24 H          -4.6768   12.0034   15.6851 H       1  RES1        0.2105
     25 H          -4.1210    9.0815   15.9737 H       1  RES1        0.2105
     26 H          -4.8893    5.9047   16.9668 H       1  RES1        0.2106
     27 H          -8.4644   11.2205   18.9484 H       1  RES1        0.2923
     28 H         -13.4788    9.4189   21.1024 H       1  RES1        0.2923
@<TRIPOS>BOND
     1    17    16    1
     2    16     8    1
     3    18     7    1
     4     7     8    1
     5     7     6    1
     6    19     6    1
     7     8     1    1
     8     6     4    1
     9     1     5    1
    10     4     5    1
    11     4     2    1
    12    22    21    1
    13     5     9    1
    14    20    12    1
    15     2    11    1
    16     9    12    2
    17     9    10    1
    18    12    14    1
    19    10    11    1
    20    10    13    2
    21    14    21    1
    22    14    15    2
    23    11     3    2
    24    13    15    1
    25    15    23    1
    26    17    24    1
    27    18    25    1
    28    19    26    1
    29    20    27    1
    30    23    28    1
