MODEL 1
REMARK VINA RESULT:    -8.665      0.000      0.000
REMARK INTER + INTRA:         -17.971
REMARK INTER:                 -15.503
REMARK INTRA:                  -2.468
REMARK UNBOUND:                -2.468
REMARK  15 active torsions:
REMARK  status: ('A' for Active; 'I' for Inactive)
REMARK    1  A    between atoms: O1_2  and  C2_3 
REMARK    2  A    between atoms: C3_4  and  O2_5 
REMARK    3  A    between atoms: O2_5  and  C4_6 
REMARK    4  A    between atoms: C4_6  and  C5_8 
REMARK    5  A    between atoms: C7_10  and  N2_17 
REMARK    6  A    between atoms: C9_12  and  N1_14 
REMARK    7  A    between atoms: C15_26  and  O10_27 
REMARK    8  A    between atoms: C16_28  and  O11_29 
REMARK    9  A    between atoms: C17_30  and  C18_31 
REMARK   10  A    between atoms: C18_31  and  O12_32 
REMARK   11  A    between atoms: C21_36  and  O14_37 
REMARK   12  A    between atoms: O14_37  and  C22_38 
REMARK   13  A    between atoms: C22_38  and  C23_39 
REMARK   14  A    between atoms: C25_42  and  N4_49 
REMARK   15  A    between atoms: N3_46  and  C28_45 
ROOT
ATOM      1  C2  non d   1     -10.190  11.153  19.622  0.00  0.00     0.137 A 
ATOM      2  C3  non d   1     -10.853  10.188  20.301  0.00  0.00     0.116 A 
ATOM      3  C11 non d   1     -10.345   8.942  20.365  0.00  0.00     0.058 A 
ATOM      4  C12 non d   1      -9.180   8.651  19.751  0.00  0.00     0.054 A 
ATOM      5  C13 non d   1      -8.698   7.239  19.851  0.00  0.00     0.294 C 
ATOM      6  O8  non d   1      -9.111   6.458  20.698  0.00  0.00    -0.259 OA
ATOM      7  O9  non d   1      -7.762   6.855  18.941  0.00  0.00    -0.306 OA
ATOM      8  C14 non d   1      -7.409   7.770  17.883  0.00  0.00     0.197 C 
ATOM      9  C15 non d   1      -6.142   7.246  17.215  0.00  0.00     0.181 C 
ATOM     10  C16 non d   1      -5.637   8.241  16.167  0.00  0.00     0.180 C 
ATOM     11  C17 non d   1      -5.493   9.632  16.797  0.00  0.00     0.177 C 
ATOM     12  O13 non d   1      -6.721  10.056  17.424  0.00  0.00    -0.368 OA
ATOM     13  C19 non d   1      -7.166   9.171  18.449  0.00  0.00     0.191 C 
ATOM     14  C20 non d   1      -8.475   9.609  19.094  0.00  0.00     0.026 A 
ATOM     15  C21 non d   1      -8.991  10.870  19.046  0.00  0.00     0.125 A 
ENDROOT
BRANCH   2  16
ATOM     16  O2  non d   1     -12.058  10.488  20.974  0.00  0.00    -0.272 OA
BRANCH  16  17
ATOM     17  C4  non d   1     -12.543   9.454  21.722  0.00  0.00     0.298 C 
ATOM     18  O3  non d   1     -13.353   8.607  21.371  0.00  0.00    -0.259 OA
BRANCH  17  19
ATOM     19  C5  non d   1     -11.908   9.463  23.078  0.00  0.00     0.044 A 
ATOM     20  C6  non d   1     -11.863  10.576  23.848  0.00  0.00     0.053 A 
ATOM     21  C7  non d   1     -11.281  10.510  25.066  0.00  0.00     0.106 A 
ATOM     22  C8  non d   1     -10.742   9.365  25.539  0.00  0.00     0.072 A 
ATOM     23  C9  non d   1     -10.803   8.269  24.752  0.00  0.00     0.106 A 
ATOM     24  C10 non d   1     -11.379   8.301  23.531  0.00  0.00     0.053 A 
BRANCH  21  25
ATOM     25  N2  non d   1     -11.238  11.717  25.903  0.00  0.00    -0.116 N 
ATOM     26  O6  non d   1     -11.691  11.639  27.052  0.00  0.00    -0.532 OA
ATOM     27  O7  non d   1     -10.750  12.744  25.411  0.00  0.00    -0.532 OA
ENDBRANCH  21  25
BRANCH  23  28
ATOM     28  N1  non d   1     -10.226   7.008  25.238  0.00  0.00    -0.116 N 
ATOM     29  O4  non d   1      -9.655   7.020  26.337  0.00  0.00    -0.532 OA
ATOM     30  O5  non d   1     -10.341   6.005  24.520  0.00  0.00    -0.532 OA
ENDBRANCH  23  28
ENDBRANCH  17  19
ENDBRANCH  16  17
ENDBRANCH   2  16
BRANCH   1  31
ATOM     31  O1  non d   1     -10.719  12.442  19.579  0.00  0.00    -0.351 OA
ATOM     32  C1  non d   1     -11.590  12.610  18.458  0.00  0.00     0.210 C 
ENDBRANCH   1  31
BRANCH  15  33
ATOM     33  O14 non d   1      -8.313  11.913  18.380  0.00  0.00    -0.271 OA
BRANCH  33  34
ATOM     34  C22 non d   1      -7.431  12.580  19.179  0.00  0.00     0.298 C 
ATOM     35  O15 non d   1      -7.500  12.742  20.390  0.00  0.00    -0.259 OA
BRANCH  34  36
ATOM     36  C23 non d   1      -6.324  13.142  18.343  0.00  0.00     0.044 A 
ATOM     37  C26 non d   1      -6.661  13.784  17.199  0.00  0.00     0.053 A 
ATOM     38  C25 non d   1      -5.686  14.311  16.426  0.00  0.00     0.106 A 
ATOM     39  C24 non d   1      -4.382  14.226  16.768  0.00  0.00     0.072 A 
ATOM     40  C28 non d   1      -4.077  13.588  17.917  0.00  0.00     0.106 A 
ATOM     41  C27 non d   1      -5.024  13.038  18.708  0.00  0.00     0.053 A 
BRANCH  38  42
ATOM     42  N4  non d   1      -6.054  15.003  15.184  0.00  0.00    -0.116 N 
ATOM     43  O18 non d   1      -6.268  16.222  15.245  0.00  0.00    -0.532 OA
ATOM     44  O19 non d   1      -6.130  14.330  14.147  0.00  0.00    -0.532 OA
ENDBRANCH  38  42
BRANCH  40  45
ATOM     45  N3  non d   1      -2.675  13.509  18.332  0.00  0.00    -0.116 N 
ATOM     46  O16 non d   1      -2.332  14.159  19.332  0.00  0.00    -0.532 OA
ATOM     47  O17 non d   1      -1.914  12.810  17.652  0.00  0.00    -0.532 OA
ENDBRANCH  40  45
ENDBRANCH  34  36
ENDBRANCH  33  34
ENDBRANCH  15  33
BRANCH  11  48
ATOM     48  C18 non d   1      -5.088  10.679  15.749  0.00  0.00     0.198 C 
BRANCH  48  49
ATOM     49  O12 non d   1      -3.674  10.861  15.734  0.00  0.00    -0.398 OA
ATOM     50  H16 non d   1      -3.306  10.329  16.469  0.00  0.00     0.209 HD
ENDBRANCH  48  49
ENDBRANCH  11  48
BRANCH   9  51
ATOM     51  O10 non d   1      -6.388   5.987  16.570  0.00  0.00    -0.390 OA
ATOM     52  H10 non d   1      -7.358   5.900  16.488  0.00  0.00     0.210 HD
ENDBRANCH   9  51
BRANCH  10  53
ATOM     53  O11 non d   1      -4.376   7.776  15.675  0.00  0.00    -0.390 OA
ATOM     54  H12 non d   1      -4.061   7.135  16.346  0.00  0.00     0.210 HD
ENDBRANCH  10  53
TORSDOF 15
ENDMDL
MODEL 2
REMARK VINA RESULT:    -8.660      0.125      2.150
REMARK INTER + INTRA:         -17.963
REMARK INTER:                 -15.534
REMARK INTRA:                  -2.428
REMARK UNBOUND:                -2.468
REMARK  15 active torsions:
REMARK  status: ('A' for Active; 'I' for Inactive)
REMARK    1  A    between atoms: O1_2  and  C2_3 
REMARK    2  A    between atoms: C3_4  and  O2_5 
REMARK    3  A    between atoms: O2_5  and  C4_6 
REMARK    4  A    between atoms: C4_6  and  C5_8 
REMARK    5  A    between atoms: C7_10  and  N2_17 
REMARK    6  A    between atoms: C9_12  and  N1_14 
REMARK    7  A    between atoms: C15_26  and  O10_27 
REMARK    8  A    between atoms: C16_28  and  O11_29 
REMARK    9  A    between atoms: C17_30  and  C18_31 
REMARK   10  A    between atoms: C18_31  and  O12_32 
REMARK   11  A    between atoms: C21_36  and  O14_37 
REMARK   12  A    between atoms: O14_37  and  C22_38 
REMARK   13  A    between atoms: C22_38  and  C23_39 
REMARK   14  A    between atoms: C25_42  and  N4_49 
REMARK   15  A    between atoms: N3_46  and  C28_45 
ROOT
ATOM      1  C2  non d   1     -10.128  11.126  19.644  0.00  0.00     0.137 A 
ATOM      2  C3  non d   1     -10.787  10.160  20.327  0.00  0.00     0.116 A 
ATOM      3  C11 non d   1     -10.286   8.911  20.373  0.00  0.00     0.058 A 
ATOM      4  C12 non d   1      -9.134   8.616  19.736  0.00  0.00     0.054 A 
ATOM      5  C13 non d   1      -8.661   7.200  19.816  0.00  0.00     0.294 C 
ATOM      6  O8  non d   1      -9.065   6.415  20.664  0.00  0.00    -0.259 OA
ATOM      7  O9  non d   1      -7.745   6.816  18.886  0.00  0.00    -0.306 OA
ATOM      8  C14 non d   1      -7.404   7.737  17.829  0.00  0.00     0.197 C 
ATOM      9  C15 non d   1      -6.152   7.210  17.134  0.00  0.00     0.181 C 
ATOM     10  C16 non d   1      -5.659   8.209  16.085  0.00  0.00     0.180 C 
ATOM     11  C17 non d   1      -5.494   9.594  16.723  0.00  0.00     0.177 C 
ATOM     12  O13 non d   1      -6.707  10.022  17.376  0.00  0.00    -0.368 OA
ATOM     13  C19 non d   1      -7.140   9.131  18.402  0.00  0.00     0.191 C 
ATOM     14  C20 non d   1      -8.434   9.574  19.073  0.00  0.00     0.026 A 
ATOM     15  C21 non d   1      -8.942  10.839  19.044  0.00  0.00     0.125 A 
ENDROOT
BRANCH   2  16
ATOM     16  O2  non d   1     -11.976  10.464  21.024  0.00  0.00    -0.272 OA
BRANCH  16  17
ATOM     17  C4  non d   1     -12.479   9.415  21.739  0.00  0.00     0.298 C 
ATOM     18  O3  non d   1     -13.301   8.591  21.360  0.00  0.00    -0.259 OA
BRANCH  17  19
ATOM     19  C5  non d   1     -11.847   9.372  23.096  0.00  0.00     0.044 A 
ATOM     20  C6  non d   1     -11.340   8.233  23.622  0.00  0.00     0.053 A 
ATOM     21  C7  non d   1     -10.776   8.269  24.850  0.00  0.00     0.106 A 
ATOM     22  C8  non d   1     -10.701   9.411  25.568  0.00  0.00     0.072 A 
ATOM     23  C9  non d   1     -11.212  10.534  25.018  0.00  0.00     0.106 A 
ATOM     24  C10 non d   1     -11.780  10.532  23.793  0.00  0.00     0.053 A 
BRANCH  21  25
ATOM     25  N2  non d   1     -10.222   7.032  25.418  0.00  0.00    -0.116 N 
ATOM     26  O6  non d   1      -9.698   7.096  26.537  0.00  0.00    -0.532 OA
ATOM     27  O7  non d   1     -10.312   5.997  24.745  0.00  0.00    -0.532 OA
ENDBRANCH  21  25
BRANCH  23  28
ATOM     28  N1  non d   1     -11.146  11.792  25.774  0.00  0.00    -0.116 N 
ATOM     29  O4  non d   1     -10.658  12.780  25.209  0.00  0.00    -0.532 OA
ATOM     30  O5  non d   1     -11.581  11.794  26.934  0.00  0.00    -0.532 OA
ENDBRANCH  23  28
ENDBRANCH  17  19
ENDBRANCH  16  17
ENDBRANCH   2  16
BRANCH   1  31
ATOM     31  O1  non d   1     -10.648  12.419  19.621  0.00  0.00    -0.351 OA
ATOM     32  C1  non d   1     -11.518  12.610  18.502  0.00  0.00     0.210 C 
ENDBRANCH   1  31
BRANCH  15  33
ATOM     33  O14 non d   1      -8.268  11.883  18.375  0.00  0.00    -0.271 OA
BRANCH  33  34
ATOM     34  C22 non d   1      -7.371  12.541  19.165  0.00  0.00     0.298 C 
ATOM     35  O15 non d   1      -7.429  12.707  20.375  0.00  0.00    -0.259 OA
BRANCH  34  36
ATOM     36  C23 non d   1      -6.264  13.085  18.318  0.00  0.00     0.044 A 
ATOM     37  C26 non d   1      -6.599  13.695  17.156  0.00  0.00     0.053 A 
ATOM     38  C25 non d   1      -5.623  14.205  16.373  0.00  0.00     0.106 A 
ATOM     39  C24 non d   1      -4.320  14.135  16.722  0.00  0.00     0.072 A 
ATOM     40  C28 non d   1      -4.017  13.529  17.890  0.00  0.00     0.106 A 
ATOM     41  C27 non d   1      -4.964  12.996  18.691  0.00  0.00     0.053 A 
BRANCH  38  42
ATOM     42  N4  non d   1      -5.988  14.862  15.111  0.00  0.00    -0.116 N 
ATOM     43  O18 non d   1      -6.285  14.138  14.151  0.00  0.00    -0.532 OA
ATOM     44  O19 non d   1      -5.979  16.100  15.079  0.00  0.00    -0.532 OA
ENDBRANCH  38  42
BRANCH  40  45
ATOM     45  N3  non d   1      -2.616  13.467  18.312  0.00  0.00    -0.116 N 
ATOM     46  O16 non d   1      -1.858  12.711  17.684  0.00  0.00    -0.532 OA
ATOM     47  O17 non d   1      -2.277  14.161  19.279  0.00  0.00    -0.532 OA
ENDBRANCH  40  45
ENDBRANCH  34  36
ENDBRANCH  33  34
ENDBRANCH  15  33
BRANCH  11  48
ATOM     48  C18 non d   1      -5.100  10.647  15.677  0.00  0.00     0.198 C 
BRANCH  48  49
ATOM     49  O12 non d   1      -3.689  10.851  15.669  0.00  0.00    -0.398 OA
ATOM     50  H16 non d   1      -3.270   9.970  15.584  0.00  0.00     0.209 HD
ENDBRANCH  48  49
ENDBRANCH  11  48
BRANCH   9  51
ATOM     51  O10 non d   1      -6.420   5.957  16.484  0.00  0.00    -0.390 OA
ATOM     52  H10 non d   1      -6.131   6.057  15.556  0.00  0.00     0.210 HD
ENDBRANCH   9  51
BRANCH  10  53
ATOM     53  O11 non d   1      -4.410   7.739  15.567  0.00  0.00    -0.390 OA
ATOM     54  H12 non d   1      -3.831   7.639  16.351  0.00  0.00     0.210 HD
ENDBRANCH  10  53
TORSDOF 15
ENDMDL
MODEL 3
REMARK VINA RESULT:    -8.643      0.120      2.874
REMARK INTER + INTRA:         -17.932
REMARK INTER:                 -15.470
REMARK INTRA:                  -2.462
REMARK UNBOUND:                -2.468
REMARK  15 active torsions:
REMARK  status: ('A' for Active; 'I' for Inactive)
REMARK    1  A    between atoms: O1_2  and  C2_3 
REMARK    2  A    between atoms: C3_4  and  O2_5 
REMARK    3  A    between atoms: O2_5  and  C4_6 
REMARK    4  A    between atoms: C4_6  and  C5_8 
REMARK    5  A    between atoms: C7_10  and  N2_17 
REMARK    6  A    between atoms: C9_12  and  N1_14 
REMARK    7  A    between atoms: C15_26  and  O10_27 
REMARK    8  A    between atoms: C16_28  and  O11_29 
REMARK    9  A    between atoms: C17_30  and  C18_31 
REMARK   10  A    between atoms: C18_31  and  O12_32 
REMARK   11  A    between atoms: C21_36  and  O14_37 
REMARK   12  A    between atoms: O14_37  and  C22_38 
REMARK   13  A    between atoms: C22_38  and  C23_39 
REMARK   14  A    between atoms: C25_42  and  N4_49 
REMARK   15  A    between atoms: N3_46  and  C28_45 
ROOT
ATOM      1  C2  non d   1     -10.181  11.147  19.650  0.00  0.00     0.137 A 
ATOM      2  C3  non d   1     -10.824  10.184  20.351  0.00  0.00     0.116 A 
ATOM      3  C11 non d   1     -10.298   8.947  20.430  0.00  0.00     0.058 A 
ATOM      4  C12 non d   1      -9.136   8.661  19.809  0.00  0.00     0.054 A 
ATOM      5  C13 non d   1      -8.634   7.258  19.926  0.00  0.00     0.294 C 
ATOM      6  O8  non d   1      -9.028   6.485  20.790  0.00  0.00    -0.259 OA
ATOM      7  O9  non d   1      -7.703   6.871  19.012  0.00  0.00    -0.306 OA
ATOM      8  C14 non d   1      -7.373   7.773  17.936  0.00  0.00     0.197 C 
ATOM      9  C15 non d   1      -6.105   7.256  17.264  0.00  0.00     0.181 C 
ATOM     10  C16 non d   1      -5.625   8.240  16.195  0.00  0.00     0.180 C 
ATOM     11  C17 non d   1      -5.493   9.643  16.800  0.00  0.00     0.177 C 
ATOM     12  O13 non d   1      -6.720  10.061  17.434  0.00  0.00    -0.368 OA
ATOM     13  C19 non d   1      -7.142   9.186  18.477  0.00  0.00     0.191 C 
ATOM     14  C20 non d   1      -8.451   9.617  19.129  0.00  0.00     0.026 A 
ATOM     15  C21 non d   1      -8.984  10.870  19.066  0.00  0.00     0.125 A 
ENDROOT
BRANCH   2  16
ATOM     16  O2  non d   1     -12.025  10.479  21.031  0.00  0.00    -0.272 OA
BRANCH  16  17
ATOM     17  C4  non d   1     -12.524   9.430  21.748  0.00  0.00     0.298 C 
ATOM     18  O3  non d   1     -13.350   8.607  21.374  0.00  0.00    -0.259 OA
BRANCH  17  19
ATOM     19  C5  non d   1     -11.883   9.385  23.101  0.00  0.00     0.044 A 
ATOM     20  C6  non d   1     -11.347   8.251  23.610  0.00  0.00     0.053 A 
ATOM     21  C7  non d   1     -10.776   8.285  24.835  0.00  0.00     0.106 A 
ATOM     22  C8  non d   1     -10.723   9.420  25.566  0.00  0.00     0.072 A 
ATOM     23  C9  non d   1     -11.262  10.538  25.033  0.00  0.00     0.106 A 
ATOM     24  C10 non d   1     -11.838  10.538  23.812  0.00  0.00     0.053 A 
BRANCH  21  25
ATOM     25  N2  non d   1     -10.191   7.054  25.384  0.00  0.00    -0.116 N 
ATOM     26  O6  non d   1      -9.672   7.114  26.506  0.00  0.00    -0.532 OA
ATOM     27  O7  non d   1     -10.253   6.028  24.695  0.00  0.00    -0.532 OA
ENDBRANCH  21  25
BRANCH  23  28
ATOM     28  N1  non d   1     -11.219  11.788  25.804  0.00  0.00    -0.116 N 
ATOM     29  O4  non d   1     -11.984  11.896  26.772  0.00  0.00    -0.532 OA
ATOM     30  O5  non d   1     -10.423  12.665  25.440  0.00  0.00    -0.532 OA
ENDBRANCH  23  28
ENDBRANCH  17  19
ENDBRANCH  16  17
ENDBRANCH   2  16
BRANCH   1  31
ATOM     31  O1  non d   1     -10.728  12.428  19.591  0.00  0.00    -0.351 OA
ATOM     32  C1  non d   1     -11.624  12.561  18.485  0.00  0.00     0.210 C 
ENDBRANCH   1  31
BRANCH  15  33
ATOM     33  O14 non d   1      -8.327  11.912  18.376  0.00  0.00    -0.271 OA
BRANCH  33  34
ATOM     34  C22 non d   1      -7.434  12.593  19.151  0.00  0.00     0.298 C 
ATOM     35  O15 non d   1      -7.458  12.731  20.366  0.00  0.00    -0.259 OA
BRANCH  34  36
ATOM     36  C23 non d   1      -6.382  13.206  18.280  0.00  0.00     0.044 A 
ATOM     37  C26 non d   1      -5.092  13.096  18.675  0.00  0.00     0.053 A 
ATOM     38  C25 non d   1      -4.119  13.631  17.907  0.00  0.00     0.106 A 
ATOM     39  C24 non d   1      -4.395  14.265  16.746  0.00  0.00     0.072 A 
ATOM     40  C28 non d   1      -5.689  14.352  16.373  0.00  0.00     0.106 A 
ATOM     41  C27 non d   1      -6.689  13.840  17.123  0.00  0.00     0.053 A 
BRANCH  38  42
ATOM     42  N4  non d   1      -2.720  13.515  18.340  0.00  0.00    -0.116 N 
ATOM     43  O18 non d   1      -2.379  14.134  19.358  0.00  0.00    -0.532 OA
ATOM     44  O19 non d   1      -1.962  12.806  17.664  0.00  0.00    -0.532 OA
ENDBRANCH  38  42
BRANCH  40  45
ATOM     45  N3  non d   1      -6.017  15.003  15.103  0.00  0.00    -0.116 N 
ATOM     46  O16 non d   1      -6.048  16.243  15.083  0.00  0.00    -0.532 OA
ATOM     47  O17 non d   1      -6.259  14.276  14.131  0.00  0.00    -0.532 OA
ENDBRANCH  40  45
ENDBRANCH  34  36
ENDBRANCH  33  34
ENDBRANCH  15  33
BRANCH  11  48
ATOM     48  C18 non d   1      -5.113  10.678  15.732  0.00  0.00     0.198 C 
BRANCH  48  49
ATOM     49  O12 non d   1      -3.706  10.913  15.731  0.00  0.00    -0.398 OA
ATOM     50  H16 non d   1      -3.397  10.815  16.655  0.00  0.00     0.209 HD
ENDBRANCH  48  49
ENDBRANCH  11  48
BRANCH   9  51
ATOM     51  O10 non d   1      -6.341   5.983  16.642  0.00  0.00    -0.390 OA
ATOM     52  H10 non d   1      -7.256   5.725  16.871  0.00  0.00     0.210 HD
ENDBRANCH   9  51
BRANCH  10  53
ATOM     53  O11 non d   1      -4.362   7.784  15.697  0.00  0.00    -0.390 OA
ATOM     54  H12 non d   1      -3.886   8.597  15.427  0.00  0.00     0.210 HD
ENDBRANCH  10  53
TORSDOF 15
ENDMDL
MODEL 4
REMARK VINA RESULT:    -8.625      3.441      8.099
REMARK INTER + INTRA:         -17.900
REMARK INTER:                 -16.304
REMARK INTRA:                  -1.596
REMARK UNBOUND:                -2.468
REMARK  15 active torsions:
REMARK  status: ('A' for Active; 'I' for Inactive)
REMARK    1  A    between atoms: O1_2  and  C2_3 
REMARK    2  A    between atoms: C3_4  and  O2_5 
REMARK    3  A    between atoms: O2_5  and  C4_6 
REMARK    4  A    between atoms: C4_6  and  C5_8 
REMARK    5  A    between atoms: C7_10  and  N2_17 
REMARK    6  A    between atoms: C9_12  and  N1_14 
REMARK    7  A    between atoms: C15_26  and  O10_27 
REMARK    8  A    between atoms: C16_28  and  O11_29 
REMARK    9  A    between atoms: C17_30  and  C18_31 
REMARK   10  A    between atoms: C18_31  and  O12_32 
REMARK   11  A    between atoms: C21_36  and  O14_37 
REMARK   12  A    between atoms: O14_37  and  C22_38 
REMARK   13  A    between atoms: C22_38  and  C23_39 
REMARK   14  A    between atoms: C25_42  and  N4_49 
REMARK   15  A    between atoms: N3_46  and  C28_45 
ROOT
ATOM      1  C2  non d   1      -6.245   8.584  18.188  0.00  0.00     0.137 A 
ATOM      2  C3  non d   1      -6.098   7.339  18.698  0.00  0.00     0.116 A 
ATOM      3  C11 non d   1      -7.074   6.806  19.457  0.00  0.00     0.058 A 
ATOM      4  C12 non d   1      -8.195   7.509  19.717  0.00  0.00     0.054 A 
ATOM      5  C13 non d   1      -9.219   6.854  20.588  0.00  0.00     0.294 C 
ATOM      6  O8  non d   1      -9.239   5.647  20.789  0.00  0.00    -0.259 OA
ATOM      7  O9  non d   1     -10.141   7.675  21.158  0.00  0.00    -0.306 OA
ATOM      8  C14 non d   1      -9.992   9.100  20.998  0.00  0.00     0.197 C 
ATOM      9  C15 non d   1     -11.296   9.760  21.436  0.00  0.00     0.181 C 
ATOM     10  C16 non d   1     -11.253  11.266  21.167  0.00  0.00     0.180 C 
ATOM     11  C17 non d   1     -10.874  11.523  19.704  0.00  0.00     0.177 C 
ATOM     12  O13 non d   1      -9.643  10.857  19.353  0.00  0.00    -0.368 OA
ATOM     13  C19 non d   1      -9.694   9.444  19.537  0.00  0.00     0.191 C 
ATOM     14  C20 non d   1      -8.385   8.747  19.188  0.00  0.00     0.026 A 
ATOM     15  C21 non d   1      -7.397   9.273  18.410  0.00  0.00     0.125 A 
ENDROOT
BRANCH   2  16
ATOM     16  O2  non d   1      -4.943   6.581  18.407  0.00  0.00    -0.272 OA
BRANCH  16  17
ATOM     17  C4  non d   1      -5.110   5.695  17.382  0.00  0.00     0.298 C 
ATOM     18  O3  non d   1      -6.059   5.628  16.612  0.00  0.00    -0.259 OA
BRANCH  17  19
ATOM     19  C5  non d   1      -3.919   4.792  17.289  0.00  0.00     0.044 A 
ATOM     20  C6  non d   1      -2.745   5.078  17.901  0.00  0.00     0.053 A 
ATOM     21  C7  non d   1      -1.713   4.214  17.781  0.00  0.00     0.106 A 
ATOM     22  C8  non d   1      -1.818   3.071  17.070  0.00  0.00     0.072 A 
ATOM     23  C9  non d   1      -3.000   2.808  16.472  0.00  0.00     0.106 A 
ATOM     24  C10 non d   1      -4.052   3.649  16.574  0.00  0.00     0.053 A 
BRANCH  21  25
ATOM     25  N2  non d   1      -0.442   4.524  18.450  0.00  0.00    -0.116 N 
ATOM     26  O6  non d   1       0.511   4.876  17.742  0.00  0.00    -0.532 OA
ATOM     27  O7  non d   1      -0.396   4.418  19.682  0.00  0.00    -0.532 OA
ENDBRANCH  21  25
BRANCH  23  28
ATOM     28  N1  non d   1      -3.147   1.572  15.691  0.00  0.00    -0.116 N 
ATOM     29  O4  non d   1      -2.437   0.606  16.001  0.00  0.00    -0.532 OA
ATOM     30  O5  non d   1      -3.970   1.567  14.766  0.00  0.00    -0.532 OA
ENDBRANCH  23  28
ENDBRANCH  17  19
ENDBRANCH  16  17
ENDBRANCH   2  16
BRANCH   1  31
ATOM     31  O1  non d   1      -5.234   9.117  17.389  0.00  0.00    -0.351 OA
ATOM     32  C1  non d   1      -5.522   8.941  15.999  0.00  0.00     0.210 C 
ENDBRANCH   1  31
BRANCH  15  33
ATOM     33  O14 non d   1      -7.526  10.553  17.829  0.00  0.00    -0.271 OA
BRANCH  33  34
ATOM     34  C22 non d   1      -6.757  11.502  18.436  0.00  0.00     0.298 C 
ATOM     35  O15 non d   1      -6.698  11.758  19.631  0.00  0.00    -0.259 OA
BRANCH  34  36
ATOM     36  C23 non d   1      -5.975  12.249  17.402  0.00  0.00     0.044 A 
ATOM     37  C26 non d   1      -4.635  12.345  17.570  0.00  0.00     0.053 A 
ATOM     38  C25 non d   1      -3.899  13.005  16.649  0.00  0.00     0.106 A 
ATOM     39  C24 non d   1      -4.462  13.565  15.556  0.00  0.00     0.072 A 
ATOM     40  C28 non d   1      -5.798  13.446  15.410  0.00  0.00     0.106 A 
ATOM     41  C27 non d   1      -6.567  12.805  16.317  0.00  0.00     0.053 A 
BRANCH  38  42
ATOM     42  N4  non d   1      -2.447  13.111  16.837  0.00  0.00    -0.116 N 
ATOM     43  O18 non d   1      -2.008  13.032  17.993  0.00  0.00    -0.532 OA
ATOM     44  O19 non d   1      -1.744  13.274  15.830  0.00  0.00    -0.532 OA
ENDBRANCH  38  42
BRANCH  40  45
ATOM     45  N3  non d   1      -6.433  14.013  14.218  0.00  0.00    -0.116 N 
ATOM     46  O16 non d   1      -5.846  14.939  13.638  0.00  0.00    -0.532 OA
ATOM     47  O17 non d   1      -7.525  13.544  13.872  0.00  0.00    -0.532 OA
ENDBRANCH  40  45
ENDBRANCH  34  36
ENDBRANCH  33  34
ENDBRANCH  15  33
BRANCH  11  48
ATOM     48  C18 non d   1     -10.718  13.025  19.423  0.00  0.00     0.198 C 
BRANCH  48  49
ATOM     49  O12 non d   1      -9.349  13.417  19.506  0.00  0.00    -0.398 OA
ATOM     50  H16 non d   1      -9.183  13.693  20.430  0.00  0.00     0.209 HD
ENDBRANCH  48  49
ENDBRANCH  11  48
BRANCH   9  51
ATOM     51  O10 non d   1     -11.527   9.551  22.838  0.00  0.00    -0.390 OA
ATOM     52  H10 non d   1     -11.925  10.375  23.182  0.00  0.00     0.210 HD
ENDBRANCH   9  51
BRANCH  10  53
ATOM     53  O11 non d   1     -12.543  11.813  21.458  0.00  0.00    -0.390 OA
ATOM     54  H12 non d   1     -12.365  12.619  21.986  0.00  0.00     0.210 HD
ENDBRANCH  10  53
TORSDOF 15
ENDMDL
MODEL 5
REMARK VINA RESULT:    -8.618      0.119      2.109
REMARK INTER + INTRA:         -17.887
REMARK INTER:                 -15.422
REMARK INTRA:                  -2.466
REMARK UNBOUND:                -2.468
REMARK  15 active torsions:
REMARK  status: ('A' for Active; 'I' for Inactive)
REMARK    1  A    between atoms: O1_2  and  C2_3 
REMARK    2  A    between atoms: C3_4  and  O2_5 
REMARK    3  A    between atoms: O2_5  and  C4_6 
REMARK    4  A    between atoms: C4_6  and  C5_8 
REMARK    5  A    between atoms: C7_10  and  N2_17 
REMARK    6  A    between atoms: C9_12  and  N1_14 
REMARK    7  A    between atoms: C15_26  and  O10_27 
REMARK    8  A    between atoms: C16_28  and  O11_29 
REMARK    9  A    between atoms: C17_30  and  C18_31 
REMARK   10  A    between atoms: C18_31  and  O12_32 
REMARK   11  A    between atoms: C21_36  and  O14_37 
REMARK   12  A    between atoms: O14_37  and  C22_38 
REMARK   13  A    between atoms: C22_38  and  C23_39 
REMARK   14  A    between atoms: C25_42  and  N4_49 
REMARK   15  A    between atoms: N3_46  and  C28_45 
ROOT
ATOM      1  C2  non d   1     -10.197  11.155  19.593  0.00  0.00     0.137 A 
ATOM      2  C3  non d   1     -10.855  10.192  20.280  0.00  0.00     0.116 A 
ATOM      3  C11 non d   1     -10.339   8.950  20.355  0.00  0.00     0.058 A 
ATOM      4  C12 non d   1      -9.172   8.661  19.743  0.00  0.00     0.054 A 
ATOM      5  C13 non d   1      -8.682   7.253  19.855  0.00  0.00     0.294 C 
ATOM      6  O8  non d   1      -9.091   6.477  20.708  0.00  0.00    -0.259 OA
ATOM      7  O9  non d   1      -7.744   6.867  18.948  0.00  0.00    -0.306 OA
ATOM      8  C14 non d   1      -7.396   7.775  17.883  0.00  0.00     0.197 C 
ATOM      9  C15 non d   1      -6.125   7.253  17.219  0.00  0.00     0.181 C 
ATOM     10  C16 non d   1      -5.627   8.242  16.163  0.00  0.00     0.180 C 
ATOM     11  C17 non d   1      -5.491   9.639  16.781  0.00  0.00     0.177 C 
ATOM     12  O13 non d   1      -6.721  10.061  17.405  0.00  0.00    -0.368 OA
ATOM     13  C19 non d   1      -7.161   9.182  18.437  0.00  0.00     0.191 C 
ATOM     14  C20 non d   1      -8.473   9.617  19.078  0.00  0.00     0.026 A 
ATOM     15  C21 non d   1      -8.997  10.875  19.019  0.00  0.00     0.125 A 
ENDROOT
BRANCH   2  16
ATOM     16  O2  non d   1     -12.061  10.491  20.950  0.00  0.00    -0.272 OA
BRANCH  16  17
ATOM     17  C4  non d   1     -12.548   9.455  21.695  0.00  0.00     0.298 C 
ATOM     18  O3  non d   1     -13.362   8.613  21.343  0.00  0.00    -0.259 OA
BRANCH  17  19
ATOM     19  C5  non d   1     -11.909   9.457  23.050  0.00  0.00     0.044 A 
ATOM     20  C6  non d   1     -11.855  10.568  23.823  0.00  0.00     0.053 A 
ATOM     21  C7  non d   1     -11.270  10.495  25.039  0.00  0.00     0.106 A 
ATOM     22  C8  non d   1     -10.738   9.346  25.507  0.00  0.00     0.072 A 
ATOM     23  C9  non d   1     -10.806   8.252  24.718  0.00  0.00     0.106 A 
ATOM     24  C10 non d   1     -11.386   8.291  23.498  0.00  0.00     0.053 A 
BRANCH  21  25
ATOM     25  N2  non d   1     -11.218  11.700  25.878  0.00  0.00    -0.116 N 
ATOM     26  O6  non d   1     -10.689  12.713  25.401  0.00  0.00    -0.532 OA
ATOM     27  O7  non d   1     -11.707  11.635  27.014  0.00  0.00    -0.532 OA
ENDBRANCH  21  25
BRANCH  23  28
ATOM     28  N1  non d   1     -10.236   6.987  25.199  0.00  0.00    -0.116 N 
ATOM     29  O4  non d   1     -10.359   5.988  24.478  0.00  0.00    -0.532 OA
ATOM     30  O5  non d   1      -9.667   6.990  26.299  0.00  0.00    -0.532 OA
ENDBRANCH  23  28
ENDBRANCH  17  19
ENDBRANCH  16  17
ENDBRANCH   2  16
BRANCH   1  31
ATOM     31  O1  non d   1     -10.734  12.441  19.539  0.00  0.00    -0.351 OA
ATOM     32  C1  non d   1     -11.565  12.610  18.388  0.00  0.00     0.210 C 
ENDBRANCH   1  31
BRANCH  15  33
ATOM     33  O14 non d   1      -8.325  11.917  18.345  0.00  0.00    -0.271 OA
BRANCH  33  34
ATOM     34  C22 non d   1      -7.423  12.575  19.130  0.00  0.00     0.298 C 
ATOM     35  O15 non d   1      -7.447  12.698  20.347  0.00  0.00    -0.259 OA
BRANCH  34  36
ATOM     36  C23 non d   1      -6.359  13.181  18.269  0.00  0.00     0.044 A 
ATOM     37  C26 non d   1      -5.072  13.055  18.672  0.00  0.00     0.053 A 
ATOM     38  C25 non d   1      -4.089  13.584  17.912  0.00  0.00     0.106 A 
ATOM     39  C24 non d   1      -4.351  14.225  16.752  0.00  0.00     0.072 A 
ATOM     40  C28 non d   1      -5.641  14.327  16.371  0.00  0.00     0.106 A 
ATOM     41  C27 non d   1      -6.651  13.823  17.112  0.00  0.00     0.053 A 
BRANCH  38  42
ATOM     42  N4  non d   1      -2.694  13.450  18.353  0.00  0.00    -0.116 N 
ATOM     43  O18 non d   1      -2.354  14.061  19.376  0.00  0.00    -0.532 OA
ATOM     44  O19 non d   1      -1.939  12.738  17.679  0.00  0.00    -0.532 OA
ENDBRANCH  38  42
BRANCH  40  45
ATOM     45  N3  non d   1      -5.955  14.988  15.102  0.00  0.00    -0.116 N 
ATOM     46  O16 non d   1      -5.649  16.185  14.985  0.00  0.00    -0.532 OA
ATOM     47  O17 non d   1      -6.519  14.316  14.230  0.00  0.00    -0.532 OA
ENDBRANCH  40  45
ENDBRANCH  34  36
ENDBRANCH  33  34
ENDBRANCH  15  33
BRANCH  11  48
ATOM     48  C18 non d   1      -5.092  10.680  15.725  0.00  0.00     0.198 C 
BRANCH  48  49
ATOM     49  O12 non d   1      -3.679  10.873  15.710  0.00  0.00    -0.398 OA
ATOM     50  H16 non d   1      -3.511  11.800  15.974  0.00  0.00     0.209 HD
ENDBRANCH  48  49
ENDBRANCH  11  48
BRANCH   9  51
ATOM     51  O10 non d   1      -6.364   5.987  16.585  0.00  0.00    -0.390 OA
ATOM     52  H10 non d   1      -6.687   6.182  15.683  0.00  0.00     0.210 HD
ENDBRANCH   9  51
BRANCH  10  53
ATOM     53  O11 non d   1      -4.362   7.781  15.675  0.00  0.00    -0.390 OA
ATOM     54  H12 non d   1      -4.581   7.139  14.968  0.00  0.00     0.210 HD
ENDBRANCH  10  53
TORSDOF 15
ENDMDL
MODEL 6
REMARK VINA RESULT:    -8.397      3.289      6.517
REMARK INTER + INTRA:         -17.491
REMARK INTER:                 -15.730
REMARK INTRA:                  -1.761
REMARK UNBOUND:                -2.468
REMARK  15 active torsions:
REMARK  status: ('A' for Active; 'I' for Inactive)
REMARK    1  A    between atoms: O1_2  and  C2_3 
REMARK    2  A    between atoms: C3_4  and  O2_5 
REMARK    3  A    between atoms: O2_5  and  C4_6 
REMARK    4  A    between atoms: C4_6  and  C5_8 
REMARK    5  A    between atoms: C7_10  and  N2_17 
REMARK    6  A    between atoms: C9_12  and  N1_14 
REMARK    7  A    between atoms: C15_26  and  O10_27 
REMARK    8  A    between atoms: C16_28  and  O11_29 
REMARK    9  A    between atoms: C17_30  and  C18_31 
REMARK   10  A    between atoms: C18_31  and  O12_32 
REMARK   11  A    between atoms: C21_36  and  O14_37 
REMARK   12  A    between atoms: O14_37  and  C22_38 
REMARK   13  A    between atoms: C22_38  and  C23_39 
REMARK   14  A    between atoms: C25_42  and  N4_49 
REMARK   15  A    between atoms: N3_46  and  C28_45 
ROOT
ATOM      1  C2  non d   1      -7.595  13.317  17.475  0.00  0.00     0.137 A 
ATOM      2  C3  non d   1      -7.252  12.424  18.433  0.00  0.00     0.116 A 
ATOM      3  C11 non d   1      -5.967  12.316  18.820  0.00  0.00     0.058 A 
ATOM      4  C12 non d   1      -5.018  13.088  18.252  0.00  0.00     0.054 A 
ATOM      5  C13 non d   1      -3.612  12.888  18.721  0.00  0.00     0.294 C 
ATOM      6  O8  non d   1      -3.342  12.327  19.776  0.00  0.00    -0.259 OA
ATOM      7  O9  non d   1      -2.631  13.364  17.908  0.00  0.00    -0.306 OA
ATOM      8  C14 non d   1      -2.997  13.893  16.618  0.00  0.00     0.197 C 
ATOM      9  C15 non d   1      -1.791  14.640  16.058  0.00  0.00     0.181 C 
ATOM     10  C16 non d   1      -2.153  15.340  14.747  0.00  0.00     0.180 C 
ATOM     11  C17 non d   1      -3.400  16.211  14.949  0.00  0.00     0.177 C 
ATOM     12  O13 non d   1      -4.494  15.446  15.495  0.00  0.00    -0.368 OA
ATOM     13  C19 non d   1      -4.189  14.844  16.751  0.00  0.00     0.191 C 
ATOM     14  C20 non d   1      -5.339  14.017  17.314  0.00  0.00     0.026 A 
ATOM     15  C21 non d   1      -6.645  14.129  16.939  0.00  0.00     0.125 A 
ENDROOT
BRANCH   2  16
ATOM     16  O2  non d   1      -8.240  11.632  19.057  0.00  0.00    -0.272 OA
BRANCH  16  17
ATOM     17  C4  non d   1      -8.356  10.379  18.528  0.00  0.00     0.298 C 
ATOM     18  O3  non d   1      -7.773   9.936  17.548  0.00  0.00    -0.259 OA
BRANCH  17  19
ATOM     19  C5  non d   1      -9.304   9.563  19.352  0.00  0.00     0.044 A 
ATOM     20  C6  non d   1     -10.572   9.963  19.605  0.00  0.00     0.053 A 
ATOM     21  C7  non d   1     -11.376   9.172  20.350  0.00  0.00     0.106 A 
ATOM     22  C8  non d   1     -10.951   7.991  20.849  0.00  0.00     0.072 A 
ATOM     23  C9  non d   1      -9.683   7.614  20.580  0.00  0.00     0.106 A 
ATOM     24  C10 non d   1      -8.855   8.380  19.837  0.00  0.00     0.053 A 
BRANCH  21  25
ATOM     25  N2  non d   1     -12.753   9.607  20.619  0.00  0.00    -0.116 N 
ATOM     26  O6  non d   1     -13.404   8.971  21.458  0.00  0.00    -0.532 OA
ATOM     27  O7  non d   1     -13.183  10.585  19.993  0.00  0.00    -0.532 OA
ENDBRANCH  21  25
BRANCH  23  28
ATOM     28  N1  non d   1      -9.191   6.335  21.108  0.00  0.00    -0.116 N 
ATOM     29  O4  non d   1      -8.807   5.483  20.295  0.00  0.00    -0.532 OA
ATOM     30  O5  non d   1      -9.189   6.179  22.337  0.00  0.00    -0.532 OA
ENDBRANCH  23  28
ENDBRANCH  17  19
ENDBRANCH  16  17
ENDBRANCH   2  16
BRANCH   1  31
ATOM     31  O1  non d   1      -8.932  13.431  17.097  0.00  0.00    -0.351 OA
ATOM     32  C1  non d   1      -9.617  14.402  17.893  0.00  0.00     0.210 C 
ENDBRANCH   1  31
BRANCH  15  33
ATOM     33  O14 non d   1      -7.050  15.072  15.970  0.00  0.00    -0.271 OA
BRANCH  33  34
ATOM     34  C22 non d   1      -7.370  14.510  14.769  0.00  0.00     0.298 C 
ATOM     35  O15 non d   1      -6.962  13.451  14.312  0.00  0.00    -0.259 OA
BRANCH  34  36
ATOM     36  C23 non d   1      -8.311  15.409  14.030  0.00  0.00     0.044 A 
ATOM     37  C26 non d   1      -9.639  15.173  14.154  0.00  0.00     0.053 A 
ATOM     38  C25 non d   1     -10.514  15.973  13.507  0.00  0.00     0.106 A 
ATOM     39  C24 non d   1     -10.104  17.011  12.747  0.00  0.00     0.072 A 
ATOM     40  C28 non d   1      -8.775  17.228  12.649  0.00  0.00     0.106 A 
ATOM     41  C27 non d   1      -7.871  16.441  13.271  0.00  0.00     0.053 A 
BRANCH  38  42
ATOM     42  N4  non d   1     -11.954  15.712  13.639  0.00  0.00    -0.116 N 
ATOM     43  O18 non d   1     -12.407  15.550  14.781  0.00  0.00    -0.532 OA
ATOM     44  O19 non d   1     -12.632  15.669  12.604  0.00  0.00    -0.532 OA
ENDBRANCH  38  42
BRANCH  40  45
ATOM     45  N3  non d   1      -8.300  18.367  11.860  0.00  0.00    -0.116 N 
ATOM     46  O16 non d   1      -7.268  18.940  12.241  0.00  0.00    -0.532 OA
ATOM     47  O17 non d   1      -8.965  18.696  10.870  0.00  0.00    -0.532 OA
ENDBRANCH  40  45
ENDBRANCH  34  36
ENDBRANCH  33  34
ENDBRANCH  15  33
BRANCH  11  48
ATOM     48  C18 non d   1      -3.855  16.847  13.627  0.00  0.00     0.198 C 
BRANCH  48  49
ATOM     49  O12 non d   1      -2.996  17.925  13.261  0.00  0.00    -0.398 OA
ATOM     50  H16 non d   1      -2.141  17.780  13.714  0.00  0.00     0.209 HD
ENDBRANCH  48  49
ENDBRANCH  11  48
BRANCH   9  51
ATOM     51  O10 non d   1      -0.702  13.737  15.811  0.00  0.00    -0.390 OA
ATOM     52  H10 non d   1      -0.440  13.370  16.678  0.00  0.00     0.210 HD
ENDBRANCH   9  51
BRANCH  10  53
ATOM     53  O11 non d   1      -1.039  16.140  14.340  0.00  0.00    -0.390 OA
ATOM     54  H12 non d   1      -1.285  16.492  13.459  0.00  0.00     0.210 HD
ENDBRANCH  10  53
TORSDOF 15
ENDMDL
MODEL 7
REMARK VINA RESULT:    -8.393      3.288      6.592
REMARK INTER + INTRA:         -17.485
REMARK INTER:                 -15.722
REMARK INTRA:                  -1.762
REMARK UNBOUND:                -2.468
REMARK  15 active torsions:
REMARK  status: ('A' for Active; 'I' for Inactive)
REMARK    1  A    between atoms: O1_2  and  C2_3 
REMARK    2  A    between atoms: C3_4  and  O2_5 
REMARK    3  A    between atoms: O2_5  and  C4_6 
REMARK    4  A    between atoms: C4_6  and  C5_8 
REMARK    5  A    between atoms: C7_10  and  N2_17 
REMARK    6  A    between atoms: C9_12  and  N1_14 
REMARK    7  A    between atoms: C15_26  and  O10_27 
REMARK    8  A    between atoms: C16_28  and  O11_29 
REMARK    9  A    between atoms: C17_30  and  C18_31 
REMARK   10  A    between atoms: C18_31  and  O12_32 
REMARK   11  A    between atoms: C21_36  and  O14_37 
REMARK   12  A    between atoms: O14_37  and  C22_38 
REMARK   13  A    between atoms: C22_38  and  C23_39 
REMARK   14  A    between atoms: C25_42  and  N4_49 
REMARK   15  A    between atoms: N3_46  and  C28_45 
ROOT
ATOM      1  C2  non d   1      -7.536  13.313  17.495  0.00  0.00     0.137 A 
ATOM      2  C3  non d   1      -7.180  12.429  18.456  0.00  0.00     0.116 A 
ATOM      3  C11 non d   1      -5.891  12.336  18.838  0.00  0.00     0.058 A 
ATOM      4  C12 non d   1      -4.953  13.115  18.263  0.00  0.00     0.054 A 
ATOM      5  C13 non d   1      -3.544  12.932  18.727  0.00  0.00     0.294 C 
ATOM      6  O8  non d   1      -3.263  12.380  19.783  0.00  0.00    -0.259 OA
ATOM      7  O9  non d   1      -2.571  13.414  17.907  0.00  0.00    -0.306 OA
ATOM      8  C14 non d   1      -2.948  13.933  16.616  0.00  0.00     0.197 C 
ATOM      9  C15 non d   1      -1.752  14.691  16.048  0.00  0.00     0.181 C 
ATOM     10  C16 non d   1      -2.127  15.380  14.734  0.00  0.00     0.180 C 
ATOM     11  C17 non d   1      -3.382  16.239  14.937  0.00  0.00     0.177 C 
ATOM     12  O13 non d   1      -4.466  15.465  15.492  0.00  0.00    -0.368 OA
ATOM     13  C19 non d   1      -4.150  14.872  16.749  0.00  0.00     0.191 C 
ATOM     14  C20 non d   1      -5.288  14.036  17.321  0.00  0.00     0.026 A 
ATOM     15  C21 non d   1      -6.597  14.133  16.951  0.00  0.00     0.125 A 
ENDROOT
BRANCH   2  16
ATOM     16  O2  non d   1      -8.157  11.629  19.088  0.00  0.00    -0.272 OA
BRANCH  16  17
ATOM     17  C4  non d   1      -8.287  10.384  18.542  0.00  0.00     0.298 C 
ATOM     18  O3  non d   1      -7.704   9.946  17.559  0.00  0.00    -0.259 OA
BRANCH  17  19
ATOM     19  C5  non d   1      -9.250   9.571  19.350  0.00  0.00     0.044 A 
ATOM     20  C6  non d   1     -10.521   9.977  19.583  0.00  0.00     0.053 A 
ATOM     21  C7  non d   1     -11.339   9.188  20.314  0.00  0.00     0.106 A 
ATOM     22  C8  non d   1     -10.927   8.005  20.819  0.00  0.00     0.072 A 
ATOM     23  C9  non d   1      -9.656   7.622  20.569  0.00  0.00     0.106 A 
ATOM     24  C10 non d   1      -8.814   8.386  19.840  0.00  0.00     0.053 A 
BRANCH  21  25
ATOM     25  N2  non d   1     -12.719   9.627  20.562  0.00  0.00    -0.116 N 
ATOM     26  O6  non d   1     -13.407   8.956  21.343  0.00  0.00    -0.532 OA
ATOM     27  O7  non d   1     -13.116  10.644  19.978  0.00  0.00    -0.532 OA
ENDBRANCH  21  25
BRANCH  23  28
ATOM     28  N1  non d   1      -9.177   6.341  21.104  0.00  0.00    -0.116 N 
ATOM     29  O4  non d   1      -8.794   5.485  20.296  0.00  0.00    -0.532 OA
ATOM     30  O5  non d   1      -9.186   6.188  22.333  0.00  0.00    -0.532 OA
ENDBRANCH  23  28
ENDBRANCH  17  19
ENDBRANCH  16  17
ENDBRANCH   2  16
BRANCH   1  31
ATOM     31  O1  non d   1      -8.875  13.411  17.122  0.00  0.00    -0.351 OA
ATOM     32  C1  non d   1      -9.567  14.379  17.916  0.00  0.00     0.210 C 
ENDBRANCH   1  31
BRANCH  15  33
ATOM     33  O14 non d   1      -7.016  15.067  15.980  0.00  0.00    -0.271 OA
BRANCH  33  34
ATOM     34  C22 non d   1      -7.352  14.493  14.788  0.00  0.00     0.298 C 
ATOM     35  O15 non d   1      -6.914  13.454  14.314  0.00  0.00    -0.259 OA
BRANCH  34  36
ATOM     36  C23 non d   1      -8.356  15.353  14.085  0.00  0.00     0.044 A 
ATOM     37  C26 non d   1      -7.890  16.342  13.286  0.00  0.00     0.053 A 
ATOM     38  C25 non d   1      -8.770  17.129  12.630  0.00  0.00     0.106 A 
ATOM     39  C24 non d   1     -10.104  16.951  12.739  0.00  0.00     0.072 A 
ATOM     40  C28 non d   1     -10.539  15.952  13.535  0.00  0.00     0.106 A 
ATOM     41  C27 non d   1      -9.689  15.154  14.216  0.00  0.00     0.053 A 
BRANCH  38  42
ATOM     42  N4  non d   1      -8.263  18.205  11.767  0.00  0.00    -0.116 N 
ATOM     43  O18 non d   1      -8.913  18.481  10.750  0.00  0.00    -0.532 OA
ATOM     44  O19 non d   1      -7.215  18.772  12.105  0.00  0.00    -0.532 OA
ENDBRANCH  38  42
BRANCH  40  45
ATOM     45  N3  non d   1     -11.980  15.712  13.648  0.00  0.00    -0.116 N 
ATOM     46  O16 non d   1     -12.639  15.663  12.598  0.00  0.00    -0.532 OA
ATOM     47  O17 non d   1     -12.454  15.587  14.784  0.00  0.00    -0.532 OA
ENDBRANCH  40  45
ENDBRANCH  34  36
ENDBRANCH  33  34
ENDBRANCH  15  33
BRANCH  11  48
ATOM     48  C18 non d   1      -3.850  16.864  13.615  0.00  0.00     0.198 C 
BRANCH  48  49
ATOM     49  O12 non d   1      -3.000  17.945  13.237  0.00  0.00    -0.398 OA
ATOM     50  H16 non d   1      -3.577  18.666  12.912  0.00  0.00     0.209 HD
ENDBRANCH  48  49
ENDBRANCH  11  48
BRANCH   9  51
ATOM     51  O10 non d   1      -0.655  13.797  15.800  0.00  0.00    -0.390 OA
ATOM     52  H10 non d   1      -0.154  13.731  16.636  0.00  0.00     0.210 HD
ENDBRANCH   9  51
BRANCH  10  53
ATOM     53  O11 non d   1      -1.023  16.190  14.319  0.00  0.00    -0.390 OA
ATOM     54  H12 non d   1      -0.990  16.927  14.964  0.00  0.00     0.210 HD
ENDBRANCH  10  53
TORSDOF 15
ENDMDL
MODEL 8
REMARK VINA RESULT:    -8.389      3.306      6.879
REMARK INTER + INTRA:         -17.478
REMARK INTER:                 -15.692
REMARK INTRA:                  -1.787
REMARK UNBOUND:                -2.468
REMARK  15 active torsions:
REMARK  status: ('A' for Active; 'I' for Inactive)
REMARK    1  A    between atoms: O1_2  and  C2_3 
REMARK    2  A    between atoms: C3_4  and  O2_5 
REMARK    3  A    between atoms: O2_5  and  C4_6 
REMARK    4  A    between atoms: C4_6  and  C5_8 
REMARK    5  A    between atoms: C7_10  and  N2_17 
REMARK    6  A    between atoms: C9_12  and  N1_14 
REMARK    7  A    between atoms: C15_26  and  O10_27 
REMARK    8  A    between atoms: C16_28  and  O11_29 
REMARK    9  A    between atoms: C17_30  and  C18_31 
REMARK   10  A    between atoms: C18_31  and  O12_32 
REMARK   11  A    between atoms: C21_36  and  O14_37 
REMARK   12  A    between atoms: O14_37  and  C22_38 
REMARK   13  A    between atoms: C22_38  and  C23_39 
REMARK   14  A    between atoms: C25_42  and  N4_49 
REMARK   15  A    between atoms: N3_46  and  C28_45 
ROOT
ATOM      1  C2  non d   1      -7.512  13.299  17.418  0.00  0.00     0.137 A 
ATOM      2  C3  non d   1      -7.160  12.400  18.367  0.00  0.00     0.116 A 
ATOM      3  C11 non d   1      -5.876  12.310  18.763  0.00  0.00     0.058 A 
ATOM      4  C12 non d   1      -4.937  13.107  18.214  0.00  0.00     0.054 A 
ATOM      5  C13 non d   1      -3.532  12.926  18.692  0.00  0.00     0.294 C 
ATOM      6  O8  non d   1      -3.260  12.356  19.740  0.00  0.00    -0.259 OA
ATOM      7  O9  non d   1      -2.553  13.431  17.894  0.00  0.00    -0.306 OA
ATOM      8  C14 non d   1      -2.919  13.972  16.608  0.00  0.00     0.197 C 
ATOM      9  C15 non d   1      -1.722  14.749  16.069  0.00  0.00     0.181 C 
ATOM     10  C16 non d   1      -2.086  15.460  14.764  0.00  0.00     0.180 C 
ATOM     11  C17 non d   1      -3.350  16.305  14.968  0.00  0.00     0.177 C 
ATOM     12  O13 non d   1      -4.435  15.513  15.495  0.00  0.00    -0.368 OA
ATOM     13  C19 non d   1      -4.129  14.899  16.744  0.00  0.00     0.191 C 
ATOM     14  C20 non d   1      -5.268  14.044  17.286  0.00  0.00     0.026 A 
ATOM     15  C21 non d   1      -6.573  14.137  16.902  0.00  0.00     0.125 A 
ENDROOT
BRANCH   2  16
ATOM     16  O2  non d   1      -8.139  11.581  18.971  0.00  0.00    -0.272 OA
BRANCH  16  17
ATOM     17  C4  non d   1      -8.231  10.335  18.420  0.00  0.00     0.298 C 
ATOM     18  O3  non d   1      -7.645   9.923  17.428  0.00  0.00    -0.259 OA
BRANCH  17  19
ATOM     19  C5  non d   1      -9.154   9.484  19.236  0.00  0.00     0.044 A 
ATOM     20  C6  non d   1      -8.755   8.319  19.799  0.00  0.00     0.053 A 
ATOM     21  C7  non d   1      -9.640   7.605  20.530  0.00  0.00     0.106 A 
ATOM     22  C8  non d   1     -10.912   8.020  20.717  0.00  0.00     0.072 A 
ATOM     23  C9  non d   1     -11.283   9.187  20.146  0.00  0.00     0.106 A 
ATOM     24  C10 non d   1     -10.423   9.925  19.412  0.00  0.00     0.053 A 
BRANCH  21  25
ATOM     25  N2  non d   1      -9.204   6.343  21.145  0.00  0.00    -0.116 N 
ATOM     26  O6  non d   1      -8.816   5.440  20.393  0.00  0.00    -0.532 OA
ATOM     27  O7  non d   1      -9.247   6.257  22.379  0.00  0.00    -0.532 OA
ENDBRANCH  21  25
BRANCH  23  28
ATOM     28  N1  non d   1     -12.659   9.666  20.331  0.00  0.00    -0.116 N 
ATOM     29  O4  non d   1     -13.370   9.076  21.155  0.00  0.00    -0.532 OA
ATOM     30  O5  non d   1     -13.032  10.631  19.650  0.00  0.00    -0.532 OA
ENDBRANCH  23  28
ENDBRANCH  17  19
ENDBRANCH  16  17
ENDBRANCH   2  16
BRANCH   1  31
ATOM     31  O1  non d   1      -8.847  13.395  17.031  0.00  0.00    -0.351 OA
ATOM     32  C1  non d   1      -9.559  14.333  17.842  0.00  0.00     0.210 C 
ENDBRANCH   1  31
BRANCH  15  33
ATOM     33  O14 non d   1      -6.987  15.086  15.943  0.00  0.00    -0.271 OA
BRANCH  33  34
ATOM     34  C22 non d   1      -7.321  14.531  14.742  0.00  0.00     0.298 C 
ATOM     35  O15 non d   1      -6.887  13.496  14.255  0.00  0.00    -0.259 OA
BRANCH  34  36
ATOM     36  C23 non d   1      -8.317  15.405  14.046  0.00  0.00     0.044 A 
ATOM     37  C26 non d   1      -7.843  16.428  13.296  0.00  0.00     0.053 A 
ATOM     38  C25 non d   1      -8.716  17.230  12.648  0.00  0.00     0.106 A 
ATOM     39  C24 non d   1     -10.050  17.034  12.718  0.00  0.00     0.072 A 
ATOM     40  C28 non d   1     -10.493  16.002  13.465  0.00  0.00     0.106 A 
ATOM     41  C27 non d   1      -9.651  15.188  14.137  0.00  0.00     0.053 A 
BRANCH  38  42
ATOM     42  N4  non d   1      -8.200  18.342  11.839  0.00  0.00    -0.116 N 
ATOM     43  O18 non d   1      -8.957  18.838  10.993  0.00  0.00    -0.532 OA
ATOM     44  O19 non d   1      -7.039  18.719  12.046  0.00  0.00    -0.532 OA
ENDBRANCH  38  42
BRANCH  40  45
ATOM     45  N3  non d   1     -11.933  15.743  13.533  0.00  0.00    -0.116 N 
ATOM     46  O16 non d   1     -12.565  15.722  12.466  0.00  0.00    -0.532 OA
ATOM     47  O17 non d   1     -12.434  15.576  14.652  0.00  0.00    -0.532 OA
ENDBRANCH  40  45
ENDBRANCH  34  36
ENDBRANCH  33  34
ENDBRANCH  15  33
BRANCH  11  48
ATOM     48  C18 non d   1      -3.807  16.952  13.652  0.00  0.00     0.198 C 
BRANCH  48  49
ATOM     49  O12 non d   1      -2.938  18.022  13.285  0.00  0.00    -0.398 OA
ATOM     50  H16 non d   1      -3.376  18.513  12.560  0.00  0.00     0.209 HD
ENDBRANCH  48  49
ENDBRANCH  11  48
BRANCH   9  51
ATOM     51  O10 non d   1      -0.614  13.869  15.818  0.00  0.00    -0.390 OA
ATOM     52  H10 non d   1       0.124  14.430  15.509  0.00  0.00     0.210 HD
ENDBRANCH   9  51
BRANCH  10  53
ATOM     53  O11 non d   1      -0.983  16.287  14.378  0.00  0.00    -0.390 OA
ATOM     54  H12 non d   1      -0.220  15.949  14.891  0.00  0.00     0.210 HD
ENDBRANCH  10  53
TORSDOF 15
ENDMDL
MODEL 9
REMARK VINA RESULT:    -8.361      3.300      6.835
REMARK INTER + INTRA:         -17.428
REMARK INTER:                 -15.671
REMARK INTRA:                  -1.757
REMARK UNBOUND:                -2.468
REMARK  15 active torsions:
REMARK  status: ('A' for Active; 'I' for Inactive)
REMARK    1  A    between atoms: O1_2  and  C2_3 
REMARK    2  A    between atoms: C3_4  and  O2_5 
REMARK    3  A    between atoms: O2_5  and  C4_6 
REMARK    4  A    between atoms: C4_6  and  C5_8 
REMARK    5  A    between atoms: C7_10  and  N2_17 
REMARK    6  A    between atoms: C9_12  and  N1_14 
REMARK    7  A    between atoms: C15_26  and  O10_27 
REMARK    8  A    between atoms: C16_28  and  O11_29 
REMARK    9  A    between atoms: C17_30  and  C18_31 
REMARK   10  A    between atoms: C18_31  and  O12_32 
REMARK   11  A    between atoms: C21_36  and  O14_37 
REMARK   12  A    between atoms: O14_37  and  C22_38 
REMARK   13  A    between atoms: C22_38  and  C23_39 
REMARK   14  A    between atoms: C25_42  and  N4_49 
REMARK   15  A    between atoms: N3_46  and  C28_45 
ROOT
ATOM      1  C2  non d   1      -7.494  13.315  17.415  0.00  0.00     0.137 A 
ATOM      2  C3  non d   1      -7.147  12.413  18.363  0.00  0.00     0.116 A 
ATOM      3  C11 non d   1      -5.864  12.320  18.763  0.00  0.00     0.058 A 
ATOM      4  C12 non d   1      -4.922  13.116  18.218  0.00  0.00     0.054 A 
ATOM      5  C13 non d   1      -3.519  12.932  18.699  0.00  0.00     0.294 C 
ATOM      6  O8  non d   1      -3.251  12.359  19.748  0.00  0.00    -0.259 OA
ATOM      7  O9  non d   1      -2.537  13.436  17.905  0.00  0.00    -0.306 OA
ATOM      8  C14 non d   1      -2.897  13.980  16.619  0.00  0.00     0.197 C 
ATOM      9  C15 non d   1      -1.697  14.756  16.085  0.00  0.00     0.181 C 
ATOM     10  C16 non d   1      -2.057  15.471  14.781  0.00  0.00     0.180 C 
ATOM     11  C17 non d   1      -3.320  16.318  14.982  0.00  0.00     0.177 C 
ATOM     12  O13 non d   1      -4.407  15.526  15.504  0.00  0.00    -0.368 OA
ATOM     13  C19 non d   1      -4.107  14.909  16.754  0.00  0.00     0.191 C 
ATOM     14  C20 non d   1      -5.248  14.055  17.291  0.00  0.00     0.026 A 
ATOM     15  C21 non d   1      -6.552  14.152  16.903  0.00  0.00     0.125 A 
ENDROOT
BRANCH   2  16
ATOM     16  O2  non d   1      -8.129  11.596  18.963  0.00  0.00    -0.272 OA
BRANCH  16  17
ATOM     17  C4  non d   1      -8.213  10.346  18.418  0.00  0.00     0.298 C 
ATOM     18  O3  non d   1      -7.616   9.930  17.434  0.00  0.00    -0.259 OA
BRANCH  17  19
ATOM     19  C5  non d   1      -9.142   9.497  19.229  0.00  0.00     0.044 A 
ATOM     20  C6  non d   1      -8.750   8.329  19.790  0.00  0.00     0.053 A 
ATOM     21  C7  non d   1      -9.640   7.617  20.518  0.00  0.00     0.106 A 
ATOM     22  C8  non d   1     -10.910   8.039  20.703  0.00  0.00     0.072 A 
ATOM     23  C9  non d   1     -11.274   9.209  20.135  0.00  0.00     0.106 A 
ATOM     24  C10 non d   1     -10.409   9.945  19.404  0.00  0.00     0.053 A 
BRANCH  21  25
ATOM     25  N2  non d   1      -9.212   6.352  21.130  0.00  0.00    -0.116 N 
ATOM     26  O6  non d   1      -9.245   6.269  22.365  0.00  0.00    -0.532 OA
ATOM     27  O7  non d   1      -8.844   5.441  20.376  0.00  0.00    -0.532 OA
ENDBRANCH  21  25
BRANCH  23  28
ATOM     28  N1  non d   1     -12.649   9.694  20.318  0.00  0.00    -0.116 N 
ATOM     29  O4  non d   1     -13.012  10.665  19.641  0.00  0.00    -0.532 OA
ATOM     30  O5  non d   1     -13.365   9.106  21.140  0.00  0.00    -0.532 OA
ENDBRANCH  23  28
ENDBRANCH  17  19
ENDBRANCH  16  17
ENDBRANCH   2  16
BRANCH   1  31
ATOM     31  O1  non d   1      -8.828  13.414  17.024  0.00  0.00    -0.351 OA
ATOM     32  C1  non d   1      -9.538  14.360  17.828  0.00  0.00     0.210 C 
ENDBRANCH   1  31
BRANCH  15  33
ATOM     33  O14 non d   1      -6.962  15.103  15.945  0.00  0.00    -0.271 OA
BRANCH  33  34
ATOM     34  C22 non d   1      -7.250  14.556  14.728  0.00  0.00     0.298 C 
ATOM     35  O15 non d   1      -6.798  13.524  14.252  0.00  0.00    -0.259 OA
BRANCH  34  36
ATOM     36  C23 non d   1      -8.216  15.437  14.000  0.00  0.00     0.044 A 
ATOM     37  C26 non d   1      -9.538  15.179  14.144  0.00  0.00     0.053 A 
ATOM     38  C25 non d   1     -10.436  15.962  13.507  0.00  0.00     0.106 A 
ATOM     39  C24 non d   1     -10.053  17.003  12.736  0.00  0.00     0.072 A 
ATOM     40  C28 non d   1      -8.730  17.241  12.618  0.00  0.00     0.106 A 
ATOM     41  C27 non d   1      -7.804  16.472  13.230  0.00  0.00     0.053 A 
BRANCH  38  42
ATOM     42  N4  non d   1     -11.868  15.678  13.661  0.00  0.00    -0.116 N 
ATOM     43  O18 non d   1     -12.295  15.478  14.807  0.00  0.00    -0.532 OA
ATOM     44  O19 non d   1     -12.567  15.653  12.639  0.00  0.00    -0.532 OA
ENDBRANCH  38  42
BRANCH  40  45
ATOM     45  N3  non d   1      -8.285  18.384  11.817  0.00  0.00    -0.116 N 
ATOM     46  O16 non d   1      -9.009  18.745  10.877  0.00  0.00    -0.532 OA
ATOM     47  O17 non d   1      -7.206  18.910  12.118  0.00  0.00    -0.532 OA
ENDBRANCH  40  45
ENDBRANCH  34  36
ENDBRANCH  33  34
ENDBRANCH  15  33
BRANCH  11  48
ATOM     48  C18 non d   1      -3.771  16.968  13.666  0.00  0.00     0.198 C 
BRANCH  48  49
ATOM     49  O12 non d   1      -2.802  17.908  13.207  0.00  0.00    -0.398 OA
ATOM     50  H16 non d   1      -2.087  17.935  13.874  0.00  0.00     0.209 HD
ENDBRANCH  48  49
ENDBRANCH  11  48
BRANCH   9  51
ATOM     51  O10 non d   1      -0.591  13.875  15.835  0.00  0.00    -0.390 OA
ATOM     52  H10 non d   1      -0.959  12.970  15.791  0.00  0.00     0.210 HD
ENDBRANCH   9  51
BRANCH  10  53
ATOM     53  O11 non d   1      -0.951  16.296  14.399  0.00  0.00    -0.390 OA
ATOM     54  H12 non d   1      -0.153  15.774  14.626  0.00  0.00     0.210 HD
ENDBRANCH  10  53
TORSDOF 15
ENDMDL
