@<TRIPOS>MOLECULE
result_docking2_blind_rigid_5svr_P2X3_gallic_acid_pubchem_MMFF94
 16 16 0 0 0
SMALL
GASTEIGER

@<TRIPOS>ATOM
      1  C         18.1230  -12.5800  -23.9930 C.2     1  UNL1        0.0817
      2  C         15.8500  -11.5020  -25.2000 C.2     1  UNL1        0.2019
      3  C         16.4420  -10.8500  -24.1170 C.2     1  UNL1        0.1708
      4  C         16.3960  -12.6930  -25.6790 C.2     1  UNL1        0.1708
      5  C         17.5770  -11.3900  -23.5140 C.2     1  UNL1        0.0464
      6  C         17.5310  -13.2320  -25.0750 C.2     1  UNL1        0.0464
      7  O         14.7390  -10.9750  -25.7890 O.2     1  UNL1       -0.5009
      8  O         15.9180   -9.6860  -23.6410 O.2     1  UNL1       -0.5028
      9  O         15.8270  -13.3410  -26.7340 O.2     1  UNL1       -0.5028
     10  C         19.3060  -13.1440  -23.3630 C.2     1  UNL1        0.3382
     11  O         19.5340  -14.3490  -23.2160 O.2     1  UNL1       -0.2451
     12  O         20.1730  -12.1860  -22.9330 O.3     1  UNL1       -0.4771
     13 H          14.3418  -11.4128  -26.5160 H       1  UNL1        0.2924
     14 H          15.1553   -9.3173  -24.0414 H       1  UNL1        0.2923
     15 H          15.0640  -12.9857  -27.1458 H       1  UNL1        0.2923
     16 H          19.9705  -11.2800  -23.0597 H       1  UNL1        0.2954
@<TRIPOS>BOND
     1     9     4    1
     2     7     2    1
     3     4     2    2
     4     4     6    1
     5     2     3    1
     6     6     1    2
     7     3     8    1
     8     3     5    2
     9     1     5    1
    10     1    10    1
    11    10    11    2
    12    10    12    1
    13     7    13    1
    14     8    14    1
    15     9    15    1
    16    12    16    1
