@<TRIPOS>MOLECULE
result_docking2_blind_rigid_5svr_P2X3_Sorbinil_meeko
 19 21 0 0 0
SMALL
GASTEIGER

@<TRIPOS>ATOM
      1  F         24.6810  -13.1480  -26.7960 F       1  UNL1       -0.2042
      2  O         22.3780   -8.8470  -24.2650 O.2     1  UNL1       -0.4756
      3  O         19.4720  -10.9160  -26.2210 O.2     1  UNL1       -0.2726
      4  O         19.4530  -14.5040  -23.3700 O.2     1  UNL1       -0.2524
      5  N         20.7770  -12.5800  -23.4610 N.am    1  UNL1       -0.2806
      6  N         19.1630  -12.8400  -24.9690 N.am    1  UNL1       -0.2381
      7  C         20.8750  -11.3670  -24.2600 C.3     1  UNL1        0.1529
      8  C         20.5110  -10.1560  -23.3940 C.3     1  UNL1        0.0786
      9  C         22.2250  -11.2000  -24.9150 C.2     1  UNL1        0.0384
     10  C         19.7660  -11.6470  -25.2830 C.2     1  UNL1        0.2493
     11  C         20.9620   -8.8720  -24.0720 C.3     1  UNL1        0.2079
     12  C         22.8880   -9.9640  -24.8780 C.2     1  UNL1        0.1366
     13  C         19.7540  -13.4320  -23.8770 C.2     1  UNL1        0.3070
     14  C         22.8470  -12.2690  -25.5830 C.2     1  UNL1        0.0304
     15  C         24.1540   -9.8150  -25.4520 C.2     1  UNL1        0.0389
     16  C         24.1040  -12.1140  -26.1690 C.2     1  UNL1        0.1401
     17  C         24.7590  -10.8890  -26.0990 C.2     1  UNL1        0.0327
     18 H          21.3730  -12.7790  -22.7031 H       1  UNL1        0.1516
     19 H          18.4030  -13.2236  -25.4634 H       1  UNL1        0.1591
@<TRIPOS>BOND
     1     1    16    1
     2     3    10    2
     3    16    17    2
     4    16    14    1
     5    17    15    1
     6    14     9    2
     7    15    12    2
     8    10     6   am
     9    10     7    1
    10     6    13   am
    11     9    12    1
    12     9     7    1
    13    12     2    1
    14     2    11    1
    15     7     5    1
    16     7     8    1
    17    11     8    1
    18    13     5   am
    19    13     4    2
    20     5    18    1
    21     6    19    1
