@<TRIPOS>MOLECULE
result_docking2_blind_rigid_5svr_P2X3_Epalrestat
 22 23 0 0 0
SMALL
GASTEIGER

@<TRIPOS>ATOM
      1  S        -11.4780   -8.0460  -86.5270 S.3     1  UNL1       -0.0789
      2  S        -12.2590   -8.1600  -89.4290 S.2     1  UNL1       -0.0275
      3  O         -9.4900   -4.7990  -86.7920 O.2     1  UNL1       -0.2732
      4  N        -10.7370   -6.2200  -88.1900 N.am    1  UNL1       -0.2364
      5  C        -10.5180   -6.7620  -85.9160 C.3     1  UNL1        0.1515
      6  C        -10.1720   -5.7970  -86.9850 C.2     1  UNL1        0.2447
      7  C        -11.4730   -7.3990  -88.1660 C.2     1  UNL1        0.1179
      8  C        -10.1200   -6.6270  -84.6500 C.2     1  UNL1       -0.0143
      9  C        -10.7750   -5.8450  -83.5980 C.2     1  UNL1       -0.0425
     10  C        -12.0180   -5.3700  -83.8230 C.3     1  UNL1        0.0480
     11  C        -10.0140   -5.6300  -82.3130 C.3     1  UNL1        0.0264
     12  C        -12.8110   -4.5620  -82.8900 C.2     1  UNL1       -0.0181
     13  C        -13.6630   -5.1920  -81.9920 C.2     1  UNL1       -0.0039
     14  C        -14.4180   -4.4230  -81.1060 C.2     1  UNL1       -0.0003
     15  C        -14.3150   -3.0330  -81.1250 C.2     1  UNL1       -0.0000
     16  C        -13.4560   -2.4100  -82.0310 C.2     1  UNL1       -0.0003
     17  C        -12.7010   -3.1780  -82.9170 C.2     1  UNL1       -0.0039
     18  C        -10.5610   -5.4580  -89.4220 C.3     1  UNL1        0.2086
     19  C         -9.2610   -5.7640  -90.1210 C.2     1  UNL1        0.3347
     20  O         -8.9930   -6.8630  -90.5920 O.2     1  UNL1       -0.2484
     21  O         -8.4160   -4.7080  -90.1790 O.3     1  UNL1       -0.4790
     22 H          -8.6662   -3.8866  -89.8039 H       1  UNL1        0.2951
@<TRIPOS>BOND
     1    20    19    2
     2    21    19    1
     3    19    18    1
     4     2     7    2
     5    18     4    1
     6     4     7    1
     7     4     6   am
     8     7     1    1
     9     6     3    2
    10     6     5    1
    11     1     5    1
    12     5     8    1
    13     8     9    2
    14    10     9    1
    15    10    12    1
    16     9    11    1
    17    17    12    2
    18    17    16    1
    19    12    13    1
    20    16    15    2
    21    13    14    2
    22    15    14    1
    23    21    22    1
