@<TRIPOS>MOLECULE
result_docking2_blind_rigid_5svr_P2X3_Acenocoumarol_pubchem_MMFF94
 27 29 0 0 0
SMALL
GASTEIGER

@<TRIPOS>ATOM
      1  C        -10.9740   -8.1510  -87.1670 C.3     1  UNL1        0.0613
      2  C        -10.5320   -7.5470  -88.4720 C.ar    1  UNL1        0.0916
      3  O        -10.8640   -5.6520  -90.0080 O.2     1  UNL1       -0.4211
      4  C        -11.2120   -6.2640  -88.8110 C.ar    1  UNL1        0.3449
      5  C         -9.9080   -6.2060  -90.8770 C.ar    1  UNL1        0.1516
      6  O        -12.0490   -5.7580  -88.0690 O.2     1  UNL1       -0.2447
      7  C         -9.2680   -7.3990  -90.5620 C.ar    1  UNL1        0.0682
      8  C         -9.6380   -5.5030  -92.0520 C.2     1  UNL1        0.0377
      9  C         -9.6140   -8.0710  -89.3070 C.ar    1  UNL1        0.1390
     10  C         -8.3240   -7.8950  -91.4720 C.2     1  UNL1        0.0061
     11  C         -8.6990   -6.0090  -92.9450 C.2     1  UNL1        0.0031
     12  C         -8.0420   -7.2040  -92.6550 C.2     1  UNL1        0.0003
     13  O         -8.9270   -9.2440  -89.0790 O.3     1  UNL1       -0.5055
     14  C        -12.4760   -8.4920  -87.2080 C.3     1  UNL1        0.0735
     15  C        -12.7820   -9.8350  -87.8580 C.2     1  UNL1        0.1518
     16  O        -12.4840  -10.0970  -89.0220 O.2     1  UNL1       -0.2960
     17  C        -13.5250  -10.8320  -87.0070 C.3     1  UNL1        0.0723
     18  C        -10.6070   -7.2520  -85.9960 C.2     1  UNL1       -0.0176
     19  C        -11.5440   -6.9960  -84.9940 C.2     1  UNL1       -0.0022
     20  C         -9.3360   -6.6840  -85.9230 C.2     1  UNL1       -0.0022
     21  C        -11.2080   -6.1730  -83.9200 C.2     1  UNL1        0.0238
     22  C         -9.0000   -5.8600  -84.8490 C.2     1  UNL1        0.0238
     23  C         -9.9370   -5.6040  -83.8470 C.2     1  UNL1        0.1429
     24  N         -9.5940   -4.7650  -82.7530 N.pl3   1  UNL1        0.0577
     25  O         -9.0690   -5.2780  -81.7350 O.2     1  UNL1       -0.1261
     26  O         -9.8250   -3.5350  -82.8350 O.2     1  UNL1       -0.1261
     27 H          -8.3007   -9.5495  -89.7054 H       1  UNL1        0.2922
@<TRIPOS>BOND
     1    11    12    2
     2    11     8    1
     3    12    10    1
     4     8     5    2
     5    10     7    2
     6     5     7   ar
     7     5     3   ar
     8     7     9   ar
     9     3     4   ar
    10     9    13    1
    11     9     2   ar
    12    16    15    2
    13     4     2   ar
    14     4     6    2
    15     2     1    1
    16    15    14    1
    17    15    17    1
    18    14     1    1
    19     1    18    1
    20    18    20    2
    21    18    19    1
    22    20    22    1
    23    19    21    2
    24    22    23    2
    25    21    23    1
    26    23    24    1
    27    26    24    2
    28    24    25    2
    29    13    27    1
