MODEL 1
REMARK VINA RESULT:    -6.422      0.000      0.000
REMARK INTER + INTRA:          -9.395
REMARK INTER:                  -8.486
REMARK INTRA:                  -0.908
REMARK UNBOUND:                -0.908
REMARK  6 active torsions:
REMARK  status: ('A' for Active; 'I' for Inactive)
REMARK    1  A    between atoms: O_4  and  C_16 
REMARK    2  A    between atoms: N_6  and  C_9 
REMARK    3  A    between atoms: C_7  and  C_11 
REMARK    4  A    between atoms: C_9  and  C_16 
REMARK    5  A    between atoms: C_10  and  C_11 
REMARK    6  A    between atoms: C_13  and  C_14 
ROOT
ATOM      1  S   UNL d   1     -11.478  -8.046 -86.527  0.00  0.00    -0.055 SA
ATOM      2  S   UNL d   1     -12.259  -8.160 -89.429  0.00  0.00    -0.052 SA
ATOM      3  O   UNL d   1      -9.490  -4.799 -86.792  0.00  0.00    -0.266 OA
ATOM      4  N   UNL d   1     -10.737  -6.220 -88.190  0.00  0.00    -0.288 N 
ATOM      5  C   UNL d   1     -10.518  -6.762 -85.916  0.00  0.00     0.076 A 
ATOM      6  C   UNL d   1     -10.172  -5.797 -86.985  0.00  0.00     0.266 A 
ATOM      7  C   UNL d   1     -11.473  -7.399 -88.166  0.00  0.00     0.149 A 
ENDROOT
BRANCH   5   8
ATOM      8  C   UNL d   1     -10.120  -6.627 -84.650  0.00  0.00     0.031 C 
BRANCH   8   9
ATOM      9  C   UNL d   1     -10.775  -5.845 -83.598  0.00  0.00    -0.060 C 
ATOM     10  C   UNL d   1     -12.018  -5.370 -83.823  0.00  0.00     0.018 C 
ATOM     11  C   UNL d   1     -10.014  -5.630 -82.313  0.00  0.00     0.048 C 
BRANCH  10  12
ATOM     12  C   UNL d   1     -12.811  -4.562 -82.890  0.00  0.00    -0.036 A 
ATOM     13  C   UNL d   1     -13.663  -5.192 -81.992  0.00  0.00     0.011 A 
ATOM     14  C   UNL d   1     -14.418  -4.423 -81.106  0.00  0.00     0.001 A 
ATOM     15  C   UNL d   1     -14.315  -3.033 -81.125  0.00  0.00     0.000 A 
ATOM     16  C   UNL d   1     -13.456  -2.410 -82.031  0.00  0.00     0.001 A 
ATOM     17  C   UNL d   1     -12.701  -3.178 -82.917  0.00  0.00     0.011 A 
ENDBRANCH  10  12
ENDBRANCH   8   9
ENDBRANCH   5   8
BRANCH   4  18
ATOM     18  C   UNL d   1     -10.561  -5.458 -89.422  0.00  0.00     0.243 C 
BRANCH  18  19
ATOM     19  C   UNL d   1      -9.261  -5.764 -90.121  0.00  0.00     0.158 C 
ATOM     20  O   UNL d   1      -8.993  -6.863 -90.592  0.00  0.00    -0.649 OA
BRANCH  19  21
ATOM     21  O   UNL d   1      -8.416  -4.708 -90.179  0.00  0.00    -0.775 OA
ATOM     22  H   UNL d   1      -7.576  -4.934 -90.632  0.00  0.00     0.167 HD
ENDBRANCH  19  21
ENDBRANCH  18  19
ENDBRANCH   4  18
TORSDOF 6
ENDMDL
MODEL 2
REMARK VINA RESULT:    -6.221      1.935      2.289
REMARK INTER + INTRA:          -9.129
REMARK INTER:                  -8.296
REMARK INTRA:                  -0.833
REMARK UNBOUND:                -0.908
REMARK  6 active torsions:
REMARK  status: ('A' for Active; 'I' for Inactive)
REMARK    1  A    between atoms: O_4  and  C_16 
REMARK    2  A    between atoms: N_6  and  C_9 
REMARK    3  A    between atoms: C_7  and  C_11 
REMARK    4  A    between atoms: C_9  and  C_16 
REMARK    5  A    between atoms: C_10  and  C_11 
REMARK    6  A    between atoms: C_13  and  C_14 
ROOT
ATOM      1  S   UNL d   1     -10.192  -4.547 -88.225  0.00  0.00    -0.055 SA
ATOM      2  S   UNL d   1     -11.232  -5.521 -90.874  0.00  0.00    -0.052 SA
ATOM      3  O   UNL d   1      -9.551  -8.014 -86.766  0.00  0.00    -0.266 OA
ATOM      4  N   UNL d   1     -10.357  -7.064 -88.760  0.00  0.00    -0.288 N 
ATOM      5  C   UNL d   1      -9.688  -5.648 -87.011  0.00  0.00     0.076 A 
ATOM      6  C   UNL d   1      -9.842  -7.050 -87.462  0.00  0.00     0.266 A 
ATOM      7  C   UNL d   1     -10.617  -5.834 -89.352  0.00  0.00     0.149 A 
ENDROOT
BRANCH   5   8
ATOM      8  C   UNL d   1      -9.217  -5.313 -85.808  0.00  0.00     0.031 C 
BRANCH   8   9
ATOM      9  C   UNL d   1     -10.000  -5.013 -84.607  0.00  0.00    -0.060 C 
ATOM     10  C   UNL d   1     -11.225  -4.466 -84.752  0.00  0.00     0.018 C 
ATOM     11  C   UNL d   1      -9.385  -5.349 -83.271  0.00  0.00     0.048 C 
BRANCH  10  12
ATOM     12  C   UNL d   1     -12.134  -4.092 -83.663  0.00  0.00    -0.036 A 
ATOM     13  C   UNL d   1     -12.814  -5.082 -82.968  0.00  0.00     0.011 A 
ATOM     14  C   UNL d   1     -13.679  -4.726 -81.932  0.00  0.00     0.001 A 
ATOM     15  C   UNL d   1     -13.856  -3.383 -81.603  0.00  0.00     0.000 A 
ATOM     16  C   UNL d   1     -13.168  -2.395 -82.308  0.00  0.00     0.001 A 
ATOM     17  C   UNL d   1     -12.304  -2.751 -83.342  0.00  0.00     0.011 A 
ENDBRANCH  10  12
ENDBRANCH   8   9
ENDBRANCH   5   8
BRANCH   4  18
ATOM     18  C   UNL d   1     -10.612  -8.316 -89.464  0.00  0.00     0.243 C 
BRANCH  18  19
ATOM     19  C   UNL d   1      -9.391  -8.856 -90.164  0.00  0.00     0.158 C 
ATOM     20  O   UNL d   1      -9.108  -8.587 -91.325  0.00  0.00    -0.649 OA
BRANCH  19  21
ATOM     21  O   UNL d   1      -8.636  -9.668 -89.387  0.00  0.00    -0.775 OA
ATOM     22  H   UNL d   1      -8.028 -10.224 -89.918  0.00  0.00     0.167 HD
ENDBRANCH  19  21
ENDBRANCH  18  19
ENDBRANCH   4  18
TORSDOF 6
ENDMDL
MODEL 3
REMARK VINA RESULT:    -6.198     41.588     44.674
REMARK INTER + INTRA:          -9.099
REMARK INTER:                  -8.403
REMARK INTRA:                  -0.696
REMARK UNBOUND:                -0.908
REMARK  6 active torsions:
REMARK  status: ('A' for Active; 'I' for Inactive)
REMARK    1  A    between atoms: O_4  and  C_16 
REMARK    2  A    between atoms: N_6  and  C_9 
REMARK    3  A    between atoms: C_7  and  C_11 
REMARK    4  A    between atoms: C_9  and  C_16 
REMARK    5  A    between atoms: C_10  and  C_11 
REMARK    6  A    between atoms: C_13  and  C_14 
ROOT
ATOM      1  S   UNL d   1     -22.329  -7.489 -42.500  0.00  0.00    -0.055 SA
ATOM      2  S   UNL d   1     -22.349  -5.426 -44.689  0.00  0.00    -0.052 SA
ATOM      3  O   UNL d   1     -21.709 -10.475 -44.794  0.00  0.00    -0.266 OA
ATOM      4  N   UNL d   1     -21.975  -8.146 -44.968  0.00  0.00    -0.288 N 
ATOM      5  C   UNL d   1     -22.084  -9.151 -42.849  0.00  0.00     0.076 A 
ATOM      6  C   UNL d   1     -21.897  -9.370 -44.302  0.00  0.00     0.266 A 
ATOM      7  C   UNL d   1     -22.203  -7.015 -44.193  0.00  0.00     0.149 A 
ENDROOT
BRANCH   5   8
ATOM      8  C   UNL d   1     -22.061 -10.136 -41.950  0.00  0.00     0.031 C 
BRANCH   8   9
ATOM      9  C   UNL d   1     -21.282 -10.181 -40.710  0.00  0.00    -0.060 C 
ATOM     10  C   UNL d   1     -19.942 -10.316 -40.792  0.00  0.00     0.018 C 
ATOM     11  C   UNL d   1     -22.035 -10.060 -39.408  0.00  0.00     0.048 C 
BRANCH  10  12
ATOM     12  C   UNL d   1     -19.015 -10.391 -39.658  0.00  0.00    -0.036 A 
ATOM     13  C   UNL d   1     -18.701  -9.238 -38.951  0.00  0.00     0.011 A 
ATOM     14  C   UNL d   1     -17.819  -9.310 -37.873  0.00  0.00     0.001 A 
ATOM     15  C   UNL d   1     -17.258 -10.534 -37.511  0.00  0.00     0.000 A 
ATOM     16  C   UNL d   1     -17.579 -11.687 -38.227  0.00  0.00     0.001 A 
ATOM     17  C   UNL d   1     -18.462 -11.616 -39.305  0.00  0.00     0.011 A 
ENDBRANCH  10  12
ENDBRANCH   8   9
ENDBRANCH   5   8
BRANCH   4  18
ATOM     18  C   UNL d   1     -21.825  -8.057 -46.417  0.00  0.00     0.243 C 
BRANCH  18  19
ATOM     19  C   UNL d   1     -23.125  -8.247 -47.155  0.00  0.00     0.158 C 
ATOM     20  O   UNL d   1     -24.198  -8.425 -46.592  0.00  0.00    -0.649 OA
BRANCH  19  21
ATOM     21  O   UNL d   1     -22.995  -8.205 -48.502  0.00  0.00    -0.775 OA
ATOM     22  H   UNL d   1     -23.160  -7.307 -48.859  0.00  0.00     0.167 HD
ENDBRANCH  19  21
ENDBRANCH  18  19
ENDBRANCH   4  18
TORSDOF 6
ENDMDL
MODEL 4
REMARK VINA RESULT:    -6.187     67.623     69.325
REMARK INTER + INTRA:          -9.085
REMARK INTER:                  -8.236
REMARK INTRA:                  -0.849
REMARK UNBOUND:                -0.908
REMARK  6 active torsions:
REMARK  status: ('A' for Active; 'I' for Inactive)
REMARK    1  A    between atoms: O_4  and  C_16 
REMARK    2  A    between atoms: N_6  and  C_9 
REMARK    3  A    between atoms: C_7  and  C_11 
REMARK    4  A    between atoms: C_9  and  C_16 
REMARK    5  A    between atoms: C_10  and  C_11 
REMARK    6  A    between atoms: C_13  and  C_14 
ROOT
ATOM      1  S   UNL d   1      17.374 -11.256 -24.577  0.00  0.00    -0.055 SA
ATOM      2  S   UNL d   1      14.607 -10.084 -24.718  0.00  0.00    -0.052 SA
ATOM      3  O   UNL d   1      18.623  -8.957 -21.800  0.00  0.00    -0.266 OA
ATOM      4  N   UNL d   1      16.657  -9.317 -23.037  0.00  0.00    -0.288 N 
ATOM      5  C   UNL d   1      18.536 -10.656 -23.468  0.00  0.00     0.076 A 
ATOM      6  C   UNL d   1      17.980  -9.548 -22.657  0.00  0.00     0.266 A 
ATOM      7  C   UNL d   1      16.137 -10.118 -24.047  0.00  0.00     0.149 A 
ENDROOT
BRANCH   5   8
ATOM      8  C   UNL d   1      19.785 -11.107 -23.335  0.00  0.00     0.031 C 
BRANCH   8   9
ATOM      9  C   UNL d   1      20.986 -10.586 -23.992  0.00  0.00    -0.060 C 
ATOM     10  C   UNL d   1      21.792 -11.449 -24.647  0.00  0.00     0.018 C 
ATOM     11  C   UNL d   1      21.241  -9.102 -23.904  0.00  0.00     0.048 C 
BRANCH  10  12
ATOM     12  C   UNL d   1      23.034 -11.103 -25.345  0.00  0.00    -0.036 A 
ATOM     13  C   UNL d   1      24.238 -11.125 -24.653  0.00  0.00     0.011 A 
ATOM     14  C   UNL d   1      25.420 -10.795 -25.317  0.00  0.00     0.001 A 
ATOM     15  C   UNL d   1      25.387 -10.446 -26.666  0.00  0.00     0.000 A 
ATOM     16  C   UNL d   1      24.173 -10.427 -27.353  0.00  0.00     0.001 A 
ATOM     17  C   UNL d   1      22.992 -10.757 -26.689  0.00  0.00     0.011 A 
ENDBRANCH  10  12
ENDBRANCH   8   9
ENDBRANCH   5   8
BRANCH   4  18
ATOM     18  C   UNL d   1      15.853  -8.278 -22.401  0.00  0.00     0.243 C 
BRANCH  18  19
ATOM     19  C   UNL d   1      16.138  -6.901 -22.944  0.00  0.00     0.158 C 
ATOM     20  O   UNL d   1      15.500  -6.394 -23.858  0.00  0.00    -0.649 OA
BRANCH  19  21
ATOM     21  O   UNL d   1      17.168  -6.278 -22.325  0.00  0.00    -0.775 OA
ATOM     22  H   UNL d   1      16.898  -5.881 -21.470  0.00  0.00     0.167 HD
ENDBRANCH  19  21
ENDBRANCH  18  19
ENDBRANCH   4  18
TORSDOF 6
ENDMDL
MODEL 5
REMARK VINA RESULT:    -6.112      3.111      7.145
REMARK INTER + INTRA:          -8.986
REMARK INTER:                  -7.970
REMARK INTRA:                  -1.016
REMARK UNBOUND:                -0.908
REMARK  6 active torsions:
REMARK  status: ('A' for Active; 'I' for Inactive)
REMARK    1  A    between atoms: O_4  and  C_16 
REMARK    2  A    between atoms: N_6  and  C_9 
REMARK    3  A    between atoms: C_7  and  C_11 
REMARK    4  A    between atoms: C_9  and  C_16 
REMARK    5  A    between atoms: C_10  and  C_11 
REMARK    6  A    between atoms: C_13  and  C_14 
ROOT
ATOM      1  S   UNL d   1     -13.602  -6.708 -85.408  0.00  0.00    -0.055 SA
ATOM      2  S   UNL d   1     -15.202  -4.414 -84.302  0.00  0.00    -0.052 SA
ATOM      3  O   UNL d   1     -10.318  -5.732 -83.727  0.00  0.00    -0.266 OA
ATOM      4  N   UNL d   1     -12.532  -4.951 -83.854  0.00  0.00    -0.288 N 
ATOM      5  C   UNL d   1     -11.940  -6.895 -85.030  0.00  0.00     0.076 A 
ATOM      6  C   UNL d   1     -11.471  -5.814 -84.132  0.00  0.00     0.266 A 
ATOM      7  C   UNL d   1     -13.759  -5.246 -84.437  0.00  0.00     0.149 A 
ENDROOT
BRANCH   5   8
ATOM      8  C   UNL d   1     -11.149  -7.874 -85.473  0.00  0.00     0.031 C 
BRANCH   8   9
ATOM      9  C   UNL d   1     -10.194  -7.803 -86.582  0.00  0.00    -0.060 C 
ATOM     10  C   UNL d   1     -10.670  -7.666 -87.838  0.00  0.00     0.018 C 
ATOM     11  C   UNL d   1      -8.726  -7.876 -86.244  0.00  0.00     0.048 C 
BRANCH  10  12
ATOM     12  C   UNL d   1      -9.861  -7.592 -89.059  0.00  0.00    -0.036 A 
ATOM     13  C   UNL d   1      -9.638  -6.360 -89.660  0.00  0.00     0.011 A 
ATOM     14  C   UNL d   1      -8.869  -6.290 -90.822  0.00  0.00     0.001 A 
ATOM     15  C   UNL d   1      -8.331  -7.452 -91.373  0.00  0.00     0.000 A 
ATOM     16  C   UNL d   1      -8.560  -8.685 -90.762  0.00  0.00     0.001 A 
ATOM     17  C   UNL d   1      -9.328  -8.755 -89.600  0.00  0.00     0.011 A 
ENDBRANCH  10  12
ENDBRANCH   8   9
ENDBRANCH   5   8
BRANCH   4  18
ATOM     18  C   UNL d   1     -12.362  -3.789 -82.988  0.00  0.00     0.243 C 
BRANCH  18  19
ATOM     19  C   UNL d   1     -11.830  -2.583 -83.721  0.00  0.00     0.158 C 
ATOM     20  O   UNL d   1     -12.544  -1.675 -84.128  0.00  0.00    -0.649 OA
BRANCH  19  21
ATOM     21  O   UNL d   1     -10.487  -2.602 -83.890  0.00  0.00    -0.775 OA
ATOM     22  H   UNL d   1     -10.140  -3.514 -83.977  0.00  0.00     0.167 HD
ENDBRANCH  19  21
ENDBRANCH  18  19
ENDBRANCH   4  18
TORSDOF 6
ENDMDL
MODEL 6
REMARK VINA RESULT:    -6.106     67.400     69.196
REMARK INTER + INTRA:          -8.977
REMARK INTER:                  -8.133
REMARK INTRA:                  -0.844
REMARK UNBOUND:                -0.908
REMARK  6 active torsions:
REMARK  status: ('A' for Active; 'I' for Inactive)
REMARK    1  A    between atoms: O_4  and  C_16 
REMARK    2  A    between atoms: N_6  and  C_9 
REMARK    3  A    between atoms: C_7  and  C_11 
REMARK    4  A    between atoms: C_9  and  C_16 
REMARK    5  A    between atoms: C_10  and  C_11 
REMARK    6  A    between atoms: C_13  and  C_14 
ROOT
ATOM      1  S   UNL d   1      18.651  -7.077 -25.109  0.00  0.00    -0.055 SA
ATOM      2  S   UNL d   1      15.732  -6.422 -25.425  0.00  0.00    -0.052 SA
ATOM      3  O   UNL d   1      18.325  -8.608 -21.628  0.00  0.00    -0.266 OA
ATOM      4  N   UNL d   1      16.943  -7.628 -23.258  0.00  0.00    -0.288 N 
ATOM      5  C   UNL d   1      19.242  -7.830 -23.686  0.00  0.00     0.076 A 
ATOM      6  C   UNL d   1      18.148  -8.082 -22.720  0.00  0.00     0.266 A 
ATOM      7  C   UNL d   1      16.988  -7.056 -24.524  0.00  0.00     0.149 A 
ENDROOT
BRANCH   5   8
ATOM      8  C   UNL d   1      20.515  -8.156 -23.453  0.00  0.00     0.031 C 
BRANCH   8   9
ATOM      9  C   UNL d   1      21.209  -9.370 -23.889  0.00  0.00    -0.060 C 
ATOM     10  C   UNL d   1      22.059  -9.290 -24.935  0.00  0.00     0.018 C 
ATOM     11  C   UNL d   1      20.935 -10.642 -23.127  0.00  0.00     0.048 C 
BRANCH  10  12
ATOM     12  C   UNL d   1      22.823 -10.403 -25.509  0.00  0.00    -0.036 A 
ATOM     13  C   UNL d   1      24.166 -10.549 -25.188  0.00  0.00     0.011 A 
ATOM     14  C   UNL d   1      24.892 -11.607 -25.735  0.00  0.00     0.001 A 
ATOM     15  C   UNL d   1      24.270 -12.509 -26.597  0.00  0.00     0.000 A 
ATOM     16  C   UNL d   1      22.920 -12.353 -26.913  0.00  0.00     0.001 A 
ATOM     17  C   UNL d   1      22.193 -11.296 -26.367  0.00  0.00     0.011 A 
ENDBRANCH  10  12
ENDBRANCH   8   9
ENDBRANCH   5   8
BRANCH   4  18
ATOM     18  C   UNL d   1      15.687  -7.749 -22.523  0.00  0.00     0.243 C 
BRANCH  18  19
ATOM     19  C   UNL d   1      15.016  -9.084 -22.723  0.00  0.00     0.158 C 
ATOM     20  O   UNL d   1      15.303 -10.084 -22.077  0.00  0.00    -0.649 OA
BRANCH  19  21
ATOM     21  O   UNL d   1      14.065  -9.073 -23.687  0.00  0.00    -0.775 OA
ATOM     22  H   UNL d   1      13.738  -8.167 -23.870  0.00  0.00     0.167 HD
ENDBRANCH  19  21
ENDBRANCH  18  19
ENDBRANCH   4  18
TORSDOF 6
ENDMDL
MODEL 7
REMARK VINA RESULT:    -6.054     67.512     69.085
REMARK INTER + INTRA:          -8.909
REMARK INTER:                  -8.146
REMARK INTRA:                  -0.762
REMARK UNBOUND:                -0.908
REMARK  6 active torsions:
REMARK  status: ('A' for Active; 'I' for Inactive)
REMARK    1  A    between atoms: O_4  and  C_16 
REMARK    2  A    between atoms: N_6  and  C_9 
REMARK    3  A    between atoms: C_7  and  C_11 
REMARK    4  A    between atoms: C_9  and  C_16 
REMARK    5  A    between atoms: C_10  and  C_11 
REMARK    6  A    between atoms: C_13  and  C_14 
ROOT
ATOM      1  S   UNL d   1      19.488  -7.836 -22.988  0.00  0.00    -0.055 SA
ATOM      2  S   UNL d   1      16.917  -6.281 -23.130  0.00  0.00    -0.052 SA
ATOM      3  O   UNL d   1      17.944 -11.210 -23.879  0.00  0.00    -0.266 OA
ATOM      4  N   UNL d   1      17.256  -8.981 -23.583  0.00  0.00    -0.288 N 
ATOM      5  C   UNL d   1      19.523  -9.522 -23.299  0.00  0.00     0.076 A 
ATOM      6  C   UNL d   1      18.172 -10.034 -23.624  0.00  0.00     0.266 A 
ATOM      7  C   UNL d   1      17.750  -7.723 -23.262  0.00  0.00     0.149 A 
ENDROOT
BRANCH   5   8
ATOM      8  C   UNL d   1      20.610 -10.295 -23.258  0.00  0.00     0.031 C 
BRANCH   8   9
ATOM      9  C   UNL d   1      21.524 -10.591 -24.363  0.00  0.00    -0.060 C 
ATOM     10  C   UNL d   1      21.433 -11.791 -24.975  0.00  0.00     0.018 C 
ATOM     11  C   UNL d   1      22.510  -9.521 -24.760  0.00  0.00     0.048 C 
BRANCH  10  12
ATOM     12  C   UNL d   1      22.273 -12.256 -26.084  0.00  0.00    -0.036 A 
ATOM     13  C   UNL d   1      21.758 -12.270 -27.374  0.00  0.00     0.011 A 
ATOM     14  C   UNL d   1      22.557 -12.713 -28.428  0.00  0.00     0.001 A 
ATOM     15  C   UNL d   1      23.862 -13.139 -28.184  0.00  0.00     0.000 A 
ATOM     16  C   UNL d   1      24.369 -13.122 -26.884  0.00  0.00     0.001 A 
ATOM     17  C   UNL d   1      23.571 -12.678 -25.830  0.00  0.00     0.011 A 
ENDBRANCH  10  12
ENDBRANCH   8   9
ENDBRANCH   5   8
BRANCH   4  18
ATOM     18  C   UNL d   1      15.840  -9.193 -23.865  0.00  0.00     0.243 C 
BRANCH  18  19
ATOM     19  C   UNL d   1      15.011  -9.356 -22.617  0.00  0.00     0.158 C 
ATOM     20  O   UNL d   1      15.400  -9.960 -21.626  0.00  0.00    -0.649 OA
BRANCH  19  21
ATOM     21  O   UNL d   1      13.791  -8.774 -22.698  0.00  0.00    -0.775 OA
ATOM     22  H   UNL d   1      13.643  -8.130 -21.973  0.00  0.00     0.167 HD
ENDBRANCH  19  21
ENDBRANCH  18  19
ENDBRANCH   4  18
TORSDOF 6
ENDMDL
MODEL 8
REMARK VINA RESULT:    -5.995      2.864      3.855
REMARK INTER + INTRA:          -8.831
REMARK INTER:                  -8.081
REMARK INTRA:                  -0.749
REMARK UNBOUND:                -0.908
REMARK  6 active torsions:
REMARK  status: ('A' for Active; 'I' for Inactive)
REMARK    1  A    between atoms: O_4  and  C_16 
REMARK    2  A    between atoms: N_6  and  C_9 
REMARK    3  A    between atoms: C_7  and  C_11 
REMARK    4  A    between atoms: C_9  and  C_16 
REMARK    5  A    between atoms: C_10  and  C_11 
REMARK    6  A    between atoms: C_13  and  C_14 
ROOT
ATOM      1  S   UNL d   1     -12.491  -8.203 -89.880  0.00  0.00    -0.055 SA
ATOM      2  S   UNL d   1     -11.574  -7.910 -92.729  0.00  0.00    -0.052 SA
ATOM      3  O   UNL d   1      -9.016  -8.782 -88.415  0.00  0.00    -0.266 OA
ATOM      4  N   UNL d   1      -9.999  -8.381 -90.513  0.00  0.00    -0.288 N 
ATOM      5  C   UNL d   1     -11.373  -8.497 -88.613  0.00  0.00     0.076 A 
ATOM      6  C   UNL d   1      -9.987  -8.575 -89.130  0.00  0.00     0.266 A 
ATOM      7  C   UNL d   1     -11.233  -8.167 -91.113  0.00  0.00     0.149 A 
ENDROOT
BRANCH   5   8
ATOM      8  C   UNL d   1     -11.684  -8.644 -87.324  0.00  0.00     0.031 C 
BRANCH   8   9
ATOM      9  C   UNL d   1     -11.632  -7.616 -86.281  0.00  0.00    -0.060 C 
ATOM     10  C   UNL d   1     -10.441  -7.329 -85.715  0.00  0.00     0.018 C 
ATOM     11  C   UNL d   1     -12.923  -6.929 -85.914  0.00  0.00     0.048 C 
BRANCH  10  12
ATOM     12  C   UNL d   1     -10.210  -6.343 -84.653  0.00  0.00    -0.036 A 
ATOM     13  C   UNL d   1      -9.963  -5.019 -84.991  0.00  0.00     0.011 A 
ATOM     14  C   UNL d   1      -9.743  -4.081 -83.981  0.00  0.00     0.001 A 
ATOM     15  C   UNL d   1      -9.770  -4.476 -82.645  0.00  0.00     0.000 A 
ATOM     16  C   UNL d   1     -10.019  -5.809 -82.316  0.00  0.00     0.001 A 
ATOM     17  C   UNL d   1     -10.240  -6.746 -83.325  0.00  0.00     0.011 A 
ENDBRANCH  10  12
ENDBRANCH   8   9
ENDBRANCH   5   8
BRANCH   4  18
ATOM     18  C   UNL d   1      -8.766  -8.403 -91.294  0.00  0.00     0.243 C 
BRANCH  18  19
ATOM     19  C   UNL d   1      -8.319  -7.029 -91.723  0.00  0.00     0.158 C 
ATOM     20  O   UNL d   1      -8.347  -6.052 -90.985  0.00  0.00    -0.649 OA
BRANCH  19  21
ATOM     21  O   UNL d   1      -7.883  -6.976 -93.004  0.00  0.00    -0.775 OA
ATOM     22  H   UNL d   1      -6.906  -6.916 -93.058  0.00  0.00     0.167 HD
ENDBRANCH  19  21
ENDBRANCH  18  19
ENDBRANCH   4  18
TORSDOF 6
ENDMDL
MODEL 9
REMARK VINA RESULT:    -5.956      3.052      4.745
REMARK INTER + INTRA:          -8.780
REMARK INTER:                  -8.025
REMARK INTRA:                  -0.755
REMARK UNBOUND:                -0.908
REMARK  6 active torsions:
REMARK  status: ('A' for Active; 'I' for Inactive)
REMARK    1  A    between atoms: O_4  and  C_16 
REMARK    2  A    between atoms: N_6  and  C_9 
REMARK    3  A    between atoms: C_7  and  C_11 
REMARK    4  A    between atoms: C_9  and  C_16 
REMARK    5  A    between atoms: C_10  and  C_11 
REMARK    6  A    between atoms: C_13  and  C_14 
ROOT
ATOM      1  S   UNL d   1     -11.489  -8.552 -90.806  0.00  0.00    -0.055 SA
ATOM      2  S   UNL d   1     -12.369  -8.079 -93.643  0.00  0.00    -0.052 SA
ATOM      3  O   UNL d   1      -8.314  -6.448 -91.034  0.00  0.00    -0.266 OA
ATOM      4  N   UNL d   1     -10.109  -7.082 -92.413  0.00  0.00    -0.288 N 
ATOM      5  C   UNL d   1     -10.046  -7.854 -90.197  0.00  0.00     0.076 A 
ATOM      6  C   UNL d   1      -9.366  -7.042 -91.232  0.00  0.00     0.266 A 
ATOM      7  C   UNL d   1     -11.278  -7.834 -92.402  0.00  0.00     0.149 A 
ENDROOT
BRANCH   5   8
ATOM      8  C   UNL d   1      -9.574  -8.008 -88.958  0.00  0.00     0.031 C 
BRANCH   8   9
ATOM      9  C   UNL d   1      -9.851  -7.160 -87.797  0.00  0.00    -0.060 C 
ATOM     10  C   UNL d   1      -9.304  -7.491 -86.608  0.00  0.00     0.018 C 
ATOM     11  C   UNL d   1     -10.730  -5.952 -88.009  0.00  0.00     0.048 C 
BRANCH  10  12
ATOM     12  C   UNL d   1      -9.487  -6.765 -85.346  0.00  0.00    -0.036 A 
ATOM     13  C   UNL d   1     -10.333  -7.282 -84.375  0.00  0.00     0.011 A 
ATOM     14  C   UNL d   1     -10.507  -6.591 -83.175  0.00  0.00     0.001 A 
ATOM     15  C   UNL d   1      -9.834  -5.390 -82.958  0.00  0.00     0.000 A 
ATOM     16  C   UNL d   1      -8.985  -4.879 -83.940  0.00  0.00     0.001 A 
ATOM     17  C   UNL d   1      -8.811  -5.569 -85.139  0.00  0.00     0.011 A 
ENDBRANCH  10  12
ENDBRANCH   8   9
ENDBRANCH   5   8
BRANCH   4  18
ATOM     18  C   UNL d   1      -9.677  -6.366 -93.609  0.00  0.00     0.243 C 
BRANCH  18  19
ATOM     19  C   UNL d   1      -8.576  -7.078 -94.354  0.00  0.00     0.158 C 
ATOM     20  O   UNL d   1      -7.407  -6.712 -94.335  0.00  0.00    -0.649 OA
BRANCH  19  21
ATOM     21  O   UNL d   1      -9.003  -8.159 -95.047  0.00  0.00    -0.775 OA
ATOM     22  H   UNL d   1      -8.891  -8.990 -94.538  0.00  0.00     0.167 HD
ENDBRANCH  19  21
ENDBRANCH  18  19
ENDBRANCH   4  18
TORSDOF 6
ENDMDL
