@<TRIPOS>MOLECULE
result_docking2_blind_rigid_5svr_P2X3_Aspirin
 14 14 0 0 0
SMALL
GASTEIGER

@<TRIPOS>ATOM
      1  C5        16.9780  -10.1010  -22.7230 C.2     1  UNK1        0.1546
      2  C6        17.8700  -10.8630  -23.4760 C.2     1  UNK1        0.1100
      3  C7        17.4020   -8.9100  -22.1340 C.2     1  UNK1        0.0378
      4  C8        19.1870  -10.4330  -23.6420 C.2     1  UNK1        0.0095
      5  C9        18.7180   -8.4800  -22.3000 C.2     1  UNK1        0.0031
      6  C10       19.6100   -9.2420  -23.0530 C.2     1  UNK1        0.0004
      7  O1        15.6870  -10.5030  -22.5510 O.3     1  UNK1       -0.4239
      8  C12       14.7370   -9.6210  -23.0880 C.2     1  UNK1        0.3220
      9  O4        14.2210   -8.6790  -22.5010 O.2     1  UNK1       -0.2497
     10  C13       14.4330   -9.9980  -24.5080 C.3     1  UNK1        0.1216
     11  C11       17.4470  -12.1100  -24.1010 C.2     1  UNK1        0.3410
     12  O3        17.1160  -12.2580  -25.2740 O.2     1  UNK1       -0.2450
     13  O2        17.4520  -13.1470  -23.2190 O.3     1  UNK1       -0.4770
     14 H          17.7095  -13.0042  -22.3295 H       1  UNK1        0.2954
@<TRIPOS>BOND
     1    12    11    2
     2    10     8    1
     3    11     2    1
     4    11    13    1
     5     4     2    1
     6     4     6    2
     7     2     1    2
     8     8     7    1
     9     8     9    2
    10     6     5    1
    11     1     7    1
    12     1     3    1
    13     5     3    2
    14    13    14    1
