MODEL 1
REMARK VINA RESULT:    -7.676      0.000      0.000
REMARK INTER + INTRA:         -12.691
REMARK INTER:                 -11.715
REMARK INTRA:                  -0.977
REMARK UNBOUND:                -0.977
REMARK  11 active torsions:
REMARK  status: ('A' for Active; 'I' for Inactive)
REMARK    1  A    between atoms: O1_2  and  C2_3 
REMARK    2  A    between atoms: C3_4  and  O2_5 
REMARK    3  A    between atoms: O2_5  and  C4_6 
REMARK    4  A    between atoms: C4_6  and  C5_8 
REMARK    5  A    between atoms: C7_10  and  N2_17 
REMARK    6  A    between atoms: C9_12  and  N1_14 
REMARK    7  A    between atoms: C15_26  and  O10_27 
REMARK    8  A    between atoms: C16_28  and  O11_29 
REMARK    9  A    between atoms: C17_30  and  C18_31 
REMARK   10  A    between atoms: C18_31  and  O12_32 
REMARK   11  A    between atoms: C21_36  and  O14_37 
ROOT
ATOM      1  C2  non d   1      17.521  -7.047 -22.922  0.00  0.00     0.136 A 
ATOM      2  C3  non d   1      16.503  -6.452 -23.589  0.00  0.00     0.116 A 
ATOM      3  C11 non d   1      15.613  -7.195 -24.271  0.00  0.00     0.058 A 
ATOM      4  C12 non d   1      15.721  -8.539 -24.286  0.00  0.00     0.054 A 
ATOM      5  C13 non d   1      14.670  -9.294 -25.038  0.00  0.00     0.294 C 
ATOM      6  O8  non d   1      13.616  -8.782 -25.395  0.00  0.00    -0.259 OA
ATOM      7  O9  non d   1      14.930 -10.603 -25.294  0.00  0.00    -0.306 OA
ATOM      8  C14 non d   1      16.268 -11.088 -25.088  0.00  0.00     0.197 C 
ATOM      9  C15 non d   1      16.248 -12.611 -25.181  0.00  0.00     0.181 C 
ATOM     10  C16 non d   1      17.633 -13.187 -24.868  0.00  0.00     0.180 C 
ATOM     11  C17 non d   1      18.171 -12.619 -23.545  0.00  0.00     0.177 C 
ATOM     12  O13 non d   1      18.115 -11.175 -23.524  0.00  0.00    -0.368 OA
ATOM     13  C19 non d   1      16.784 -10.678 -23.711  0.00  0.00     0.191 C 
ATOM     14  C20 non d   1      16.731  -9.161 -23.625  0.00  0.00     0.026 A 
ATOM     15  C21 non d   1      17.641  -8.402 -22.952  0.00  0.00     0.112 A 
ENDROOT
BRANCH   2  16
ATOM     16  O2  non d   1      16.377  -5.046 -23.608  0.00  0.00    -0.272 OA
BRANCH  16  17
ATOM     17  C4  non d   1      16.813  -4.480 -24.773  0.00  0.00     0.298 C 
ATOM     18  O3  non d   1      16.416  -4.718 -25.906  0.00  0.00    -0.259 OA
BRANCH  17  19
ATOM     19  C5  non d   1      17.927  -3.519 -24.486  0.00  0.00     0.044 A 
ATOM     20  C6  non d   1      17.974  -2.788 -23.347  0.00  0.00     0.053 A 
ATOM     21  C7  non d   1      19.004  -1.932 -23.157  0.00  0.00     0.106 A 
ATOM     22  C8  non d   1      19.986  -1.784 -24.072  0.00  0.00     0.072 A 
ATOM     23  C9  non d   1      19.911  -2.522 -25.201  0.00  0.00     0.106 A 
ATOM     24  C10 non d   1      18.895  -3.385 -25.422  0.00  0.00     0.053 A 
BRANCH  21  25
ATOM     25  N2  non d   1      19.053  -1.140 -21.920  0.00  0.00    -0.116 N 
ATOM     26  O6  non d   1      18.026  -0.541 -21.578  0.00  0.00    -0.532 OA
ATOM     27  O7  non d   1      20.120  -1.115 -21.292  0.00  0.00    -0.532 OA
ENDBRANCH  21  25
BRANCH  23  28
ATOM     28  N1  non d   1      20.964  -2.382 -26.217  0.00  0.00    -0.116 N 
ATOM     29  O4  non d   1      21.704  -3.355 -26.418  0.00  0.00    -0.532 OA
ATOM     30  O5  non d   1      21.050  -1.302 -26.816  0.00  0.00    -0.532 OA
ENDBRANCH  23  28
ENDBRANCH  17  19
ENDBRANCH  16  17
ENDBRANCH   2  16
BRANCH   1  31
ATOM     31  O1  non d   1      18.429  -6.221 -22.259  0.00  0.00    -0.351 OA
ATOM     32  C1  non d   1      19.695  -6.132 -22.914  0.00  0.00     0.210 C 
ENDBRANCH   1  31
BRANCH  15  33
ATOM     33  O14 non d   1      18.711  -8.995 -22.293  0.00  0.00    -0.357 OA
ATOM     34  H18 non d   1      18.635  -9.967 -22.282  0.00  0.00     0.217 HD
ENDBRANCH  15  33
BRANCH  11  35
ATOM     35  C18 non d   1      19.634 -13.023 -23.317  0.00  0.00     0.198 C 
BRANCH  35  36
ATOM     36  O12 non d   1      19.743 -14.435 -23.129  0.00  0.00    -0.398 OA
ATOM     37  H16 non d   1      20.408 -14.573 -22.430  0.00  0.00     0.209 HD
ENDBRANCH  35  36
ENDBRANCH  11  35
BRANCH   9  38
ATOM     38  O10 non d   1      15.864 -13.033 -26.497  0.00  0.00    -0.390 OA
ATOM     39  H10 non d   1      16.384 -12.498 -27.128  0.00  0.00     0.210 HD
ENDBRANCH   9  38
BRANCH  10  40
ATOM     40  O11 non d   1      17.523 -14.611 -24.790  0.00  0.00    -0.390 OA
ATOM     41  H12 non d   1      16.858 -14.858 -25.464  0.00  0.00     0.210 HD
ENDBRANCH  10  40
TORSDOF 11
ENDMDL
MODEL 2
REMARK VINA RESULT:    -7.567      2.427      3.736
REMARK INTER + INTRA:         -12.526
REMARK INTER:                 -11.273
REMARK INTRA:                  -1.253
REMARK UNBOUND:                -0.977
REMARK  11 active torsions:
REMARK  status: ('A' for Active; 'I' for Inactive)
REMARK    1  A    between atoms: O1_2  and  C2_3 
REMARK    2  A    between atoms: C3_4  and  O2_5 
REMARK    3  A    between atoms: O2_5  and  C4_6 
REMARK    4  A    between atoms: C4_6  and  C5_8 
REMARK    5  A    between atoms: C7_10  and  N2_17 
REMARK    6  A    between atoms: C9_12  and  N1_14 
REMARK    7  A    between atoms: C15_26  and  O10_27 
REMARK    8  A    between atoms: C16_28  and  O11_29 
REMARK    9  A    between atoms: C17_30  and  C18_31 
REMARK   10  A    between atoms: C18_31  and  O12_32 
REMARK   11  A    between atoms: C21_36  and  O14_37 
ROOT
ATOM      1  C2  non d   1      18.345  -6.747 -23.149  0.00  0.00     0.136 A 
ATOM      2  C3  non d   1      17.300  -6.062 -23.674  0.00  0.00     0.116 A 
ATOM      3  C11 non d   1      16.248  -6.722 -24.193  0.00  0.00     0.058 A 
ATOM      4  C12 non d   1      16.221  -8.070 -24.184  0.00  0.00     0.054 A 
ATOM      5  C13 non d   1      15.000  -8.726 -24.747  0.00  0.00     0.294 C 
ATOM      6  O8  non d   1      13.959  -8.116 -24.957  0.00  0.00    -0.259 OA
ATOM      7  O9  non d   1      15.089 -10.058 -25.001  0.00  0.00    -0.306 OA
ATOM      8  C14 non d   1      16.389 -10.672 -24.983  0.00  0.00     0.197 C 
ATOM      9  C15 non d   1      16.206 -12.187 -25.027  0.00  0.00     0.181 C 
ATOM     10  C16 non d   1      17.560 -12.895 -24.909  0.00  0.00     0.180 C 
ATOM     11  C17 non d   1      18.346 -12.365 -23.698  0.00  0.00     0.177 C 
ATOM     12  O13 non d   1      18.435 -10.922 -23.712  0.00  0.00    -0.368 OA
ATOM     13  C19 non d   1      17.145 -10.296 -23.712  0.00  0.00     0.191 C 
ATOM     14  C20 non d   1      17.254  -8.781 -23.663  0.00  0.00     0.026 A 
ATOM     15  C21 non d   1      18.326  -8.108 -23.157  0.00  0.00     0.112 A 
ENDROOT
BRANCH   2  16
ATOM     16  O2  non d   1      17.310  -4.651 -23.715  0.00  0.00    -0.272 OA
BRANCH  16  17
ATOM     17  C4  non d   1      17.135  -4.146 -24.972  0.00  0.00     0.298 C 
ATOM     18  O3  non d   1      17.779  -4.419 -25.977  0.00  0.00    -0.259 OA
BRANCH  17  19
ATOM     19  C5  non d   1      16.035  -3.128 -24.963  0.00  0.00     0.044 A 
ATOM     20  C6  non d   1      14.885  -3.301 -25.658  0.00  0.00     0.053 A 
ATOM     21  C7  non d   1      13.938  -2.337 -25.612  0.00  0.00     0.106 A 
ATOM     22  C8  non d   1      14.107  -1.205 -24.895  0.00  0.00     0.072 A 
ATOM     23  C9  non d   1      15.265  -1.056 -24.216  0.00  0.00     0.106 A 
ATOM     24  C10 non d   1      16.231  -2.000 -24.241  0.00  0.00     0.053 A 
BRANCH  21  25
ATOM     25  N2  non d   1      12.692  -2.527 -26.367  0.00  0.00    -0.116 N 
ATOM     26  O6  non d   1      12.770  -3.040 -27.491  0.00  0.00    -0.532 OA
ATOM     27  O7  non d   1      11.634  -2.160 -25.838  0.00  0.00    -0.532 OA
ENDBRANCH  21  25
BRANCH  23  28
ATOM     28  N1  non d   1      15.478   0.165 -23.427  0.00  0.00    -0.116 N 
ATOM     29  O4  non d   1      15.199   0.129 -22.221  0.00  0.00    -0.532 OA
ATOM     30  O5  non d   1      15.928   1.160 -24.011  0.00  0.00    -0.532 OA
ENDBRANCH  23  28
ENDBRANCH  17  19
ENDBRANCH  16  17
ENDBRANCH   2  16
BRANCH   1  31
ATOM     31  O1  non d   1      19.419  -6.008 -22.654  0.00  0.00    -0.351 OA
ATOM     32  C1  non d   1      20.420  -5.738 -23.637  0.00  0.00     0.210 C 
ENDBRANCH   1  31
BRANCH  15  33
ATOM     33  O14 non d   1      19.421  -8.796 -22.649  0.00  0.00    -0.357 OA
ATOM     34  H18 non d   1      20.053  -8.197 -22.209  0.00  0.00     0.217 HD
ENDBRANCH  15  33
BRANCH  11  35
ATOM     35  C18 non d   1      19.780 -12.911 -23.680  0.00  0.00     0.198 C 
BRANCH  35  36
ATOM     36  O12 non d   1      19.814 -14.217 -23.103  0.00  0.00    -0.398 OA
ATOM     37  H16 non d   1      20.469 -14.186 -22.381  0.00  0.00     0.209 HD
ENDBRANCH  35  36
ENDBRANCH  11  35
BRANCH   9  38
ATOM     38  O10 non d   1      15.587 -12.587 -26.258  0.00  0.00    -0.390 OA
ATOM     39  H10 non d   1      14.718 -12.141 -26.294  0.00  0.00     0.210 HD
ENDBRANCH   9  38
BRANCH  10  40
ATOM     40  O11 non d   1      17.325 -14.299 -24.773  0.00  0.00    -0.390 OA
ATOM     41  H12 non d   1      17.568 -14.688 -25.637  0.00  0.00     0.210 HD
ENDBRANCH  10  40
TORSDOF 11
ENDMDL
MODEL 3
REMARK VINA RESULT:    -7.544      3.235      8.732
REMARK INTER + INTRA:         -12.491
REMARK INTER:                 -11.417
REMARK INTRA:                  -1.074
REMARK UNBOUND:                -0.977
REMARK  11 active torsions:
REMARK  status: ('A' for Active; 'I' for Inactive)
REMARK    1  A    between atoms: O1_2  and  C2_3 
REMARK    2  A    between atoms: C3_4  and  O2_5 
REMARK    3  A    between atoms: O2_5  and  C4_6 
REMARK    4  A    between atoms: C4_6  and  C5_8 
REMARK    5  A    between atoms: C7_10  and  N2_17 
REMARK    6  A    between atoms: C9_12  and  N1_14 
REMARK    7  A    between atoms: C15_26  and  O10_27 
REMARK    8  A    between atoms: C16_28  and  O11_29 
REMARK    9  A    between atoms: C17_30  and  C18_31 
REMARK   10  A    between atoms: C18_31  and  O12_32 
REMARK   11  A    between atoms: C21_36  and  O14_37 
ROOT
ATOM      1  C2  non d   1      15.463  -8.493 -24.162  0.00  0.00     0.136 A 
ATOM      2  C3  non d   1      16.215  -9.619 -24.215  0.00  0.00     0.116 A 
ATOM      3  C11 non d   1      17.524  -9.575 -23.909  0.00  0.00     0.058 A 
ATOM      4  C12 non d   1      18.096  -8.413 -23.535  0.00  0.00     0.054 A 
ATOM      5  C13 non d   1      19.548  -8.456 -23.176  0.00  0.00     0.294 C 
ATOM      6  O8  non d   1      20.143  -9.504 -22.957  0.00  0.00    -0.259 OA
ATOM      7  O9  non d   1      20.186  -7.260 -23.080  0.00  0.00    -0.306 OA
ATOM      8  C14 non d   1      19.524  -6.090 -23.589  0.00  0.00     0.197 C 
ATOM      9  C15 non d   1      20.303  -4.859 -23.133  0.00  0.00     0.181 C 
ATOM     10  C16 non d   1      19.584  -3.576 -23.565  0.00  0.00     0.180 C 
ATOM     11  C17 non d   1      18.107  -3.612 -23.137  0.00  0.00     0.177 C 
ATOM     12  O13 non d   1      17.457  -4.828 -23.573  0.00  0.00    -0.368 OA
ATOM     13  C19 non d   1      18.096  -6.003 -23.057  0.00  0.00     0.191 C 
ATOM     14  C20 non d   1      17.365  -7.270 -23.472  0.00  0.00     0.026 A 
ATOM     15  C21 non d   1      16.044  -7.316 -23.802  0.00  0.00     0.112 A 
ENDROOT
BRANCH   2  16
ATOM     16  O2  non d   1      15.648 -10.846 -24.622  0.00  0.00    -0.272 OA
BRANCH  16  17
ATOM     17  C4  non d   1      15.948 -11.176 -25.914  0.00  0.00     0.298 C 
ATOM     18  O3  non d   1      15.279 -10.942 -26.913  0.00  0.00    -0.259 OA
BRANCH  17  19
ATOM     19  C5  non d   1      17.234 -11.943 -25.958  0.00  0.00     0.044 A 
ATOM     20  C6  non d   1      17.540 -12.894 -25.043  0.00  0.00     0.053 A 
ATOM     21  C7  non d   1      18.724 -13.541 -25.136  0.00  0.00     0.106 A 
ATOM     22  C8  non d   1      19.612 -13.264 -26.115  0.00  0.00     0.072 A 
ATOM     23  C9  non d   1      19.285 -12.307 -27.011  0.00  0.00     0.106 A 
ATOM     24  C10 non d   1      18.110 -11.642 -26.945  0.00  0.00     0.053 A 
BRANCH  21  25
ATOM     25  N2  non d   1      19.052 -14.572 -24.143  0.00  0.00    -0.116 N 
ATOM     26  O6  non d   1      18.662 -15.727 -24.360  0.00  0.00    -0.532 OA
ATOM     27  O7  non d   1      19.697 -14.228 -23.143  0.00  0.00    -0.532 OA
ENDBRANCH  21  25
BRANCH  23  28
ATOM     28  N1  non d   1      20.231 -11.982 -28.087  0.00  0.00    -0.116 N 
ATOM     29  O4  non d   1      21.426 -12.256 -27.906  0.00  0.00    -0.532 OA
ATOM     30  O5  non d   1      19.782 -11.455 -29.113  0.00  0.00    -0.532 OA
ENDBRANCH  23  28
ENDBRANCH  17  19
ENDBRANCH  16  17
ENDBRANCH   2  16
BRANCH   1  31
ATOM     31  O1  non d   1      14.119  -8.596 -24.520  0.00  0.00    -0.351 OA
ATOM     32  C1  non d   1      13.840  -8.080 -25.822  0.00  0.00     0.210 C 
ENDBRANCH   1  31
BRANCH  15  33
ATOM     33  O14 non d   1      15.268  -6.163 -23.788  0.00  0.00    -0.357 OA
ATOM     34  H18 non d   1      14.331  -6.360 -23.599  0.00  0.00     0.217 HD
ENDBRANCH  15  33
BRANCH  11  35
ATOM     35  C18 non d   1      17.324  -2.436 -23.735  0.00  0.00     0.198 C 
BRANCH  35  36
ATOM     36  O12 non d   1      17.769  -1.199 -23.177  0.00  0.00    -0.398 OA
ATOM     37  H16 non d   1      17.358  -0.490 -23.706  0.00  0.00     0.209 HD
ENDBRANCH  35  36
ENDBRANCH  11  35
BRANCH   9  38
ATOM     38  O10 non d   1      21.622  -4.856 -23.698  0.00  0.00    -0.390 OA
ATOM     39  H10 non d   1      22.070  -5.661 -23.372  0.00  0.00     0.210 HD
ENDBRANCH   9  38
BRANCH  10  40
ATOM     40  O11 non d   1      20.248  -2.462 -22.964  0.00  0.00    -0.390 OA
ATOM     41  H12 non d   1      20.503  -2.762 -22.068  0.00  0.00     0.210 HD
ENDBRANCH  10  40
TORSDOF 11
ENDMDL
MODEL 4
REMARK VINA RESULT:    -7.499      2.749      3.803
REMARK INTER + INTRA:         -12.422
REMARK INTER:                 -11.071
REMARK INTRA:                  -1.351
REMARK UNBOUND:                -0.977
REMARK  11 active torsions:
REMARK  status: ('A' for Active; 'I' for Inactive)
REMARK    1  A    between atoms: O1_2  and  C2_3 
REMARK    2  A    between atoms: C3_4  and  O2_5 
REMARK    3  A    between atoms: O2_5  and  C4_6 
REMARK    4  A    between atoms: C4_6  and  C5_8 
REMARK    5  A    between atoms: C7_10  and  N2_17 
REMARK    6  A    between atoms: C9_12  and  N1_14 
REMARK    7  A    between atoms: C15_26  and  O10_27 
REMARK    8  A    between atoms: C16_28  and  O11_29 
REMARK    9  A    between atoms: C17_30  and  C18_31 
REMARK   10  A    between atoms: C18_31  and  O12_32 
REMARK   11  A    between atoms: C21_36  and  O14_37 
ROOT
ATOM      1  C2  non d   1      18.064  -6.842 -23.326  0.00  0.00     0.136 A 
ATOM      2  C3  non d   1      16.987  -6.237 -23.883  0.00  0.00     0.116 A 
ATOM      3  C11 non d   1      15.981  -6.973 -24.388  0.00  0.00     0.058 A 
ATOM      4  C12 non d   1      16.031  -8.320 -24.332  0.00  0.00     0.054 A 
ATOM      5  C13 non d   1      14.855  -9.064 -24.882  0.00  0.00     0.294 C 
ATOM      6  O8  non d   1      13.783  -8.523 -25.122  0.00  0.00    -0.259 OA
ATOM      7  O9  non d   1      15.023 -10.397 -25.089  0.00  0.00    -0.306 OA
ATOM      8  C14 non d   1      16.356 -10.934 -25.039  0.00  0.00     0.197 C 
ATOM      9  C15 non d   1      16.262 -12.457 -25.031  0.00  0.00     0.181 C 
ATOM     10  C16 non d   1      17.653 -13.082 -24.877  0.00  0.00     0.180 C 
ATOM     11  C17 non d   1      18.394 -12.465 -23.679  0.00  0.00     0.177 C 
ATOM     12  O13 non d   1      18.400 -11.021 -23.742  0.00  0.00    -0.368 OA
ATOM     13  C19 non d   1      17.077 -10.471 -23.775  0.00  0.00     0.191 C 
ATOM     14  C20 non d   1      17.098  -8.952 -23.778  0.00  0.00     0.026 A 
ATOM     15  C21 non d   1      18.124  -8.201 -23.287  0.00  0.00     0.112 A 
ENDROOT
BRANCH   2  16
ATOM     16  O2  non d   1      16.917  -4.829 -23.973  0.00  0.00    -0.272 OA
BRANCH  16  17
ATOM     17  C4  non d   1      16.983  -4.367 -25.257  0.00  0.00     0.298 C 
ATOM     18  O3  non d   1      17.950  -4.398 -26.007  0.00  0.00    -0.259 OA
BRANCH  17  19
ATOM     19  C5  non d   1      15.677  -3.738 -25.639  0.00  0.00     0.044 A 
ATOM     20  C6  non d   1      15.133  -2.719 -24.934  0.00  0.00     0.053 A 
ATOM     21  C7  non d   1      13.946  -2.205 -25.329  0.00  0.00     0.106 A 
ATOM     22  C8  non d   1      13.286  -2.682 -26.406  0.00  0.00     0.072 A 
ATOM     23  C9  non d   1      13.849  -3.702 -27.089  0.00  0.00     0.106 A 
ATOM     24  C10 non d   1      15.033  -4.238 -26.720  0.00  0.00     0.053 A 
BRANCH  21  25
ATOM     25  N2  non d   1      13.358  -1.099 -24.561  0.00  0.00    -0.116 N 
ATOM     26  O6  non d   1      12.418  -1.361 -23.799  0.00  0.00    -0.532 OA
ATOM     27  O7  non d   1      13.832   0.034 -24.724  0.00  0.00    -0.532 OA
ENDBRANCH  21  25
BRANCH  23  28
ATOM     28  N1  non d   1      13.155  -4.243 -28.266  0.00  0.00    -0.116 N 
ATOM     29  O4  non d   1      12.117  -3.676 -28.635  0.00  0.00    -0.532 OA
ATOM     30  O5  non d   1      13.647  -5.234 -28.824  0.00  0.00    -0.532 OA
ENDBRANCH  23  28
ENDBRANCH  17  19
ENDBRANCH  16  17
ENDBRANCH   2  16
BRANCH   1  31
ATOM     31  O1  non d   1      19.089  -6.025 -22.848  0.00  0.00    -0.351 OA
ATOM     32  C1  non d   1      20.149  -5.841 -23.787  0.00  0.00     0.210 C 
ENDBRANCH   1  31
BRANCH  15  33
ATOM     33  O14 non d   1      19.251  -8.806 -22.746  0.00  0.00    -0.357 OA
ATOM     34  H18 non d   1      20.065  -8.538 -23.212  0.00  0.00     0.217 HD
ENDBRANCH  15  33
BRANCH  11  35
ATOM     35  C18 non d   1      19.857 -12.927 -23.630  0.00  0.00     0.198 C 
BRANCH  35  36
ATOM     36  O12 non d   1      19.953 -14.239 -23.075  0.00  0.00    -0.398 OA
ATOM     37  H16 non d   1      20.243 -14.130 -22.150  0.00  0.00     0.209 HD
ENDBRANCH  35  36
ENDBRANCH  11  35
BRANCH   9  38
ATOM     38  O10 non d   1      15.680 -12.934 -26.253  0.00  0.00    -0.390 OA
ATOM     39  H10 non d   1      16.355 -13.492 -26.688  0.00  0.00     0.210 HD
ENDBRANCH   9  38
BRANCH  10  40
ATOM     40  O11 non d   1      17.498 -14.491 -24.694  0.00  0.00    -0.390 OA
ATOM     41  H12 non d   1      17.339 -14.854 -25.589  0.00  0.00     0.210 HD
ENDBRANCH  10  40
TORSDOF 11
ENDMDL
MODEL 5
REMARK VINA RESULT:    -7.463      0.762      2.505
REMARK INTER + INTRA:         -12.367
REMARK INTER:                 -11.253
REMARK INTRA:                  -1.114
REMARK UNBOUND:                -0.977
REMARK  11 active torsions:
REMARK  status: ('A' for Active; 'I' for Inactive)
REMARK    1  A    between atoms: O1_2  and  C2_3 
REMARK    2  A    between atoms: C3_4  and  O2_5 
REMARK    3  A    between atoms: O2_5  and  C4_6 
REMARK    4  A    between atoms: C4_6  and  C5_8 
REMARK    5  A    between atoms: C7_10  and  N2_17 
REMARK    6  A    between atoms: C9_12  and  N1_14 
REMARK    7  A    between atoms: C15_26  and  O10_27 
REMARK    8  A    between atoms: C16_28  and  O11_29 
REMARK    9  A    between atoms: C17_30  and  C18_31 
REMARK   10  A    between atoms: C18_31  and  O12_32 
REMARK   11  A    between atoms: C21_36  and  O14_37 
ROOT
ATOM      1  C2  non d   1      17.918  -7.163 -22.602  0.00  0.00     0.136 A 
ATOM      2  C3  non d   1      16.869  -6.485 -23.127  0.00  0.00     0.116 A 
ATOM      3  C11 non d   1      15.891  -7.145 -23.774  0.00  0.00     0.058 A 
ATOM      4  C12 non d   1      15.941  -8.487 -23.893  0.00  0.00     0.054 A 
ATOM      5  C13 non d   1      14.796  -9.148 -24.595  0.00  0.00     0.294 C 
ATOM      6  O8  non d   1      13.736  -8.575 -24.814  0.00  0.00    -0.259 OA
ATOM      7  O9  non d   1      14.977 -10.443 -24.965  0.00  0.00    -0.306 OA
ATOM      8  C14 non d   1      16.307 -10.987 -24.920  0.00  0.00     0.197 C 
ATOM      9  C15 non d   1      16.216 -12.498 -25.117  0.00  0.00     0.181 C 
ATOM     10  C16 non d   1      17.599 -13.143 -24.976  0.00  0.00     0.180 C 
ATOM     11  C17 non d   1      18.277 -12.693 -23.672  0.00  0.00     0.177 C 
ATOM     12  O13 non d   1      18.284 -11.253 -23.545  0.00  0.00    -0.368 OA
ATOM     13  C19 non d   1      16.962 -10.698 -23.572  0.00  0.00     0.191 C 
ATOM     14  C20 non d   1      16.980  -9.191 -23.374  0.00  0.00     0.026 A 
ATOM     15  C21 non d   1      17.979  -8.515 -22.738  0.00  0.00     0.112 A 
ENDROOT
BRANCH   2  16
ATOM     16  O2  non d   1      16.800  -5.078 -23.035  0.00  0.00    -0.272 OA
BRANCH  16  17
ATOM     17  C4  non d   1      16.793  -4.457 -24.253  0.00  0.00     0.298 C 
ATOM     18  O3  non d   1      15.895  -4.467 -25.085  0.00  0.00    -0.259 OA
BRANCH  17  19
ATOM     19  C5  non d   1      18.104  -3.768 -24.480  0.00  0.00     0.044 A 
ATOM     20  C6  non d   1      18.894  -4.050 -25.544  0.00  0.00     0.053 A 
ATOM     21  C7  non d   1      20.070  -3.397 -25.681  0.00  0.00     0.106 A 
ATOM     22  C8  non d   1      20.482  -2.474 -24.787  0.00  0.00     0.072 A 
ATOM     23  C9  non d   1      19.678  -2.216 -23.732  0.00  0.00     0.106 A 
ATOM     24  C10 non d   1      18.497  -2.851 -23.565  0.00  0.00     0.053 A 
BRANCH  21  25
ATOM     25  N2  non d   1      20.924  -3.705 -26.837  0.00  0.00    -0.116 N 
ATOM     26  O6  non d   1      22.049  -3.190 -26.876  0.00  0.00    -0.532 OA
ATOM     27  O7  non d   1      20.469  -4.458 -27.708  0.00  0.00    -0.532 OA
ENDBRANCH  21  25
BRANCH  23  28
ATOM     28  N1  non d   1      20.099  -1.217 -22.740  0.00  0.00    -0.116 N 
ATOM     29  O4  non d   1      20.794  -0.270 -23.135  0.00  0.00    -0.532 OA
ATOM     30  O5  non d   1      19.734  -1.375 -21.568  0.00  0.00    -0.532 OA
ENDBRANCH  23  28
ENDBRANCH  17  19
ENDBRANCH  16  17
ENDBRANCH   2  16
BRANCH   1  31
ATOM     31  O1  non d   1      18.915  -6.420 -21.970  0.00  0.00    -0.351 OA
ATOM     32  C1  non d   1      20.070  -6.216 -22.786  0.00  0.00     0.210 C 
ENDBRANCH   1  31
BRANCH  15  33
ATOM     33  O14 non d   1      19.078  -9.192 -22.226  0.00  0.00    -0.357 OA
ATOM     34  H18 non d   1      18.982 -10.159 -22.313  0.00  0.00     0.217 HD
ENDBRANCH  15  33
BRANCH  11  35
ATOM     35  C18 non d   1      19.737 -13.163 -23.611  0.00  0.00     0.198 C 
BRANCH  35  36
ATOM     36  O12 non d   1      19.811 -14.523 -23.180  0.00  0.00    -0.398 OA
ATOM     37  H16 non d   1      20.739 -14.686 -22.928  0.00  0.00     0.209 HD
ENDBRANCH  35  36
ENDBRANCH  11  35
BRANCH   9  38
ATOM     38  O10 non d   1      15.697 -12.808 -26.418  0.00  0.00    -0.390 OA
ATOM     39  H10 non d   1      14.798 -13.169 -26.285  0.00  0.00     0.210 HD
ENDBRANCH   9  38
BRANCH  10  40
ATOM     40  O11 non d   1      17.438 -14.564 -24.988  0.00  0.00    -0.390 OA
ATOM     41  H12 non d   1      16.475 -14.718 -24.908  0.00  0.00     0.210 HD
ENDBRANCH  10  40
TORSDOF 11
ENDMDL
MODEL 6
REMARK VINA RESULT:    -7.452      3.271      8.907
REMARK INTER + INTRA:         -12.349
REMARK INTER:                 -11.370
REMARK INTRA:                  -0.979
REMARK UNBOUND:                -0.977
REMARK  11 active torsions:
REMARK  status: ('A' for Active; 'I' for Inactive)
REMARK    1  A    between atoms: O1_2  and  C2_3 
REMARK    2  A    between atoms: C3_4  and  O2_5 
REMARK    3  A    between atoms: O2_5  and  C4_6 
REMARK    4  A    between atoms: C4_6  and  C5_8 
REMARK    5  A    between atoms: C7_10  and  N2_17 
REMARK    6  A    between atoms: C9_12  and  N1_14 
REMARK    7  A    between atoms: C15_26  and  O10_27 
REMARK    8  A    between atoms: C16_28  and  O11_29 
REMARK    9  A    between atoms: C17_30  and  C18_31 
REMARK   10  A    between atoms: C18_31  and  O12_32 
REMARK   11  A    between atoms: C21_36  and  O14_37 
ROOT
ATOM      1  C2  non d   1      15.486  -8.579 -24.116  0.00  0.00     0.136 A 
ATOM      2  C3  non d   1      16.247  -9.699 -24.182  0.00  0.00     0.116 A 
ATOM      3  C11 non d   1      17.561  -9.644 -23.897  0.00  0.00     0.058 A 
ATOM      4  C12 non d   1      18.128  -8.477 -23.531  0.00  0.00     0.054 A 
ATOM      5  C13 non d   1      19.586  -8.509 -23.196  0.00  0.00     0.294 C 
ATOM      6  O8  non d   1      20.194  -9.551 -22.987  0.00  0.00    -0.259 OA
ATOM      7  O9  non d   1      20.215  -7.307 -23.109  0.00  0.00    -0.306 OA
ATOM      8  C14 non d   1      19.536  -6.142 -23.606  0.00  0.00     0.197 C 
ATOM      9  C15 non d   1      20.312  -4.905 -23.162  0.00  0.00     0.181 C 
ATOM     10  C16 non d   1      19.575  -3.628 -23.581  0.00  0.00     0.180 C 
ATOM     11  C17 non d   1      18.106  -3.677 -23.130  0.00  0.00     0.177 C 
ATOM     12  O13 non d   1      17.459  -4.897 -23.556  0.00  0.00    -0.368 OA
ATOM     13  C19 non d   1      18.116  -6.068 -23.052  0.00  0.00     0.191 C 
ATOM     14  C20 non d   1      17.389  -7.340 -23.455  0.00  0.00     0.026 A 
ATOM     15  C21 non d   1      16.063  -7.397 -23.765  0.00  0.00     0.112 A 
ENDROOT
BRANCH   2  16
ATOM     16  O2  non d   1      15.684 -10.930 -24.581  0.00  0.00    -0.272 OA
BRANCH  16  17
ATOM     17  C4  non d   1      15.948 -11.247 -25.884  0.00  0.00     0.298 C 
ATOM     18  O3  non d   1      15.222 -11.064 -26.853  0.00  0.00    -0.259 OA
BRANCH  17  19
ATOM     19  C5  non d   1      17.280 -11.925 -25.983  0.00  0.00     0.044 A 
ATOM     20  C6  non d   1      18.165 -11.640 -26.968  0.00  0.00     0.053 A 
ATOM     21  C7  non d   1      19.345 -12.298 -27.003  0.00  0.00     0.106 A 
ATOM     22  C8  non d   1      19.668 -13.234 -26.084  0.00  0.00     0.072 A 
ATOM     23  C9  non d   1      18.766 -13.502 -25.115  0.00  0.00     0.106 A 
ATOM     24  C10 non d   1      17.576 -12.864 -25.052  0.00  0.00     0.053 A 
BRANCH  21  25
ATOM     25  N2  non d   1      20.303 -11.987 -28.073  0.00  0.00    -0.116 N 
ATOM     26  O6  non d   1      20.927 -10.920 -27.995  0.00  0.00    -0.532 OA
ATOM     27  O7  non d   1      20.430 -12.806 -28.992  0.00  0.00    -0.532 OA
ENDBRANCH  21  25
BRANCH  23  28
ATOM     28  N1  non d   1      19.086 -14.516 -24.101  0.00  0.00    -0.116 N 
ATOM     29  O4  non d   1      18.731 -15.683 -24.319  0.00  0.00    -0.532 OA
ATOM     30  O5  non d   1      19.696 -14.148 -23.087  0.00  0.00    -0.532 OA
ENDBRANCH  23  28
ENDBRANCH  17  19
ENDBRANCH  16  17
ENDBRANCH   2  16
BRANCH   1  31
ATOM     31  O1  non d   1      14.138  -8.693 -24.452  0.00  0.00    -0.351 OA
ATOM     32  C1  non d   1      13.829  -8.155 -25.739  0.00  0.00     0.210 C 
ENDBRANCH   1  31
BRANCH  15  33
ATOM     33  O14 non d   1      15.278  -6.251 -23.737  0.00  0.00    -0.357 OA
ATOM     34  H18 non d   1      15.171  -5.907 -22.830  0.00  0.00     0.217 HD
ENDBRANCH  15  33
BRANCH  11  35
ATOM     35  C18 non d   1      17.303  -2.506 -23.714  0.00  0.00     0.198 C 
BRANCH  35  36
ATOM     36  O12 non d   1      17.977  -1.948 -24.843  0.00  0.00    -0.398 OA
ATOM     37  H16 non d   1      17.823  -2.557 -25.589  0.00  0.00     0.209 HD
ENDBRANCH  35  36
ENDBRANCH  11  35
BRANCH   9  38
ATOM     38  O10 non d   1      21.621  -4.891 -23.748  0.00  0.00    -0.390 OA
ATOM     39  H10 non d   1      21.497  -4.941 -24.717  0.00  0.00     0.210 HD
ENDBRANCH   9  38
BRANCH  10  40
ATOM     40  O11 non d   1      20.239  -2.509 -22.990  0.00  0.00    -0.390 OA
ATOM     41  H12 non d   1      20.864  -2.890 -22.340  0.00  0.00     0.210 HD
ENDBRANCH  10  40
TORSDOF 11
ENDMDL
MODEL 7
REMARK VINA RESULT:    -7.397      3.539      8.918
REMARK INTER + INTRA:         -12.266
REMARK INTER:                 -11.572
REMARK INTRA:                  -0.694
REMARK UNBOUND:                -0.977
REMARK  11 active torsions:
REMARK  status: ('A' for Active; 'I' for Inactive)
REMARK    1  A    between atoms: O1_2  and  C2_3 
REMARK    2  A    between atoms: C3_4  and  O2_5 
REMARK    3  A    between atoms: O2_5  and  C4_6 
REMARK    4  A    between atoms: C4_6  and  C5_8 
REMARK    5  A    between atoms: C7_10  and  N2_17 
REMARK    6  A    between atoms: C9_12  and  N1_14 
REMARK    7  A    between atoms: C15_26  and  O10_27 
REMARK    8  A    between atoms: C16_28  and  O11_29 
REMARK    9  A    between atoms: C17_30  and  C18_31 
REMARK   10  A    between atoms: C18_31  and  O12_32 
REMARK   11  A    between atoms: C21_36  and  O14_37 
ROOT
ATOM      1  C2  non d   1      17.786  -6.576 -22.745  0.00  0.00     0.136 A 
ATOM      2  C3  non d   1      17.113  -7.705 -23.072  0.00  0.00     0.116 A 
ATOM      3  C11 non d   1      16.106  -7.660 -23.963  0.00  0.00     0.058 A 
ATOM      4  C12 non d   1      15.767  -6.493 -24.547  0.00  0.00     0.054 A 
ATOM      5  C13 non d   1      14.661  -6.535 -25.554  0.00  0.00     0.294 C 
ATOM      6  O8  non d   1      14.253  -7.580 -26.045  0.00  0.00    -0.259 OA
ATOM      7  O9  non d   1      14.132  -5.339 -25.925  0.00  0.00    -0.306 OA
ATOM      8  C14 non d   1      14.458  -4.176 -25.145  0.00  0.00     0.197 C 
ATOM      9  C15 non d   1      13.976  -2.940 -25.899  0.00  0.00     0.181 C 
ATOM     10  C16 non d   1      14.389  -1.663 -25.159  0.00  0.00     0.180 C 
ATOM     11  C17 non d   1      15.891  -1.686 -24.833  0.00  0.00     0.177 C 
ATOM     12  O13 non d   1      16.270  -2.907 -24.159  0.00  0.00    -0.368 OA
ATOM     13  C19 non d   1      15.967  -4.075 -24.932  0.00  0.00     0.191 C 
ATOM     14  C20 non d   1      16.427  -5.346 -24.239  0.00  0.00     0.026 A 
ATOM     15  C21 non d   1      17.433  -5.394 -23.320  0.00  0.00     0.112 A 
ENDROOT
BRANCH   2  16
ATOM     16  O2  non d   1      17.431  -8.938 -22.462  0.00  0.00    -0.272 OA
BRANCH  16  17
ATOM     17  C4  non d   1      16.455  -9.882 -22.610  0.00  0.00     0.298 C 
ATOM     18  O3  non d   1      15.379  -9.934 -22.029  0.00  0.00    -0.259 OA
BRANCH  17  19
ATOM     19  C5  non d   1      16.905 -10.929 -23.584  0.00  0.00     0.044 A 
ATOM     20  C6  non d   1      16.419 -10.998 -24.846  0.00  0.00     0.053 A 
ATOM     21  C7  non d   1      16.862 -11.976 -25.669  0.00  0.00     0.106 A 
ATOM     22  C8  non d   1      17.774 -12.887 -25.268  0.00  0.00     0.072 A 
ATOM     23  C9  non d   1      18.238 -12.798 -24.002  0.00  0.00     0.106 A 
ATOM     24  C10 non d   1      17.816 -11.835 -23.155  0.00  0.00     0.053 A 
BRANCH  21  25
ATOM     25  N2  non d   1      16.333 -12.048 -27.038  0.00  0.00    -0.116 N 
ATOM     26  O6  non d   1      15.732 -11.059 -27.477  0.00  0.00    -0.532 OA
ATOM     27  O7  non d   1      16.514 -13.095 -27.674  0.00  0.00    -0.532 OA
ENDBRANCH  21  25
BRANCH  23  28
ATOM     28  N1  non d   1      19.231 -13.776 -23.535  0.00  0.00    -0.116 N 
ATOM     29  O4  non d   1      20.130 -13.372 -22.785  0.00  0.00    -0.532 OA
ATOM     30  O5  non d   1      19.111 -14.949 -23.915  0.00  0.00    -0.532 OA
ENDBRANCH  23  28
ENDBRANCH  17  19
ENDBRANCH  16  17
ENDBRANCH   2  16
BRANCH   1  31
ATOM     31  O1  non d   1      18.800  -6.681 -21.792  0.00  0.00    -0.351 OA
ATOM     32  C1  non d   1      20.109  -6.712 -22.362  0.00  0.00     0.210 C 
ENDBRANCH   1  31
BRANCH  15  33
ATOM     33  O14 non d   1      18.109  -4.239 -22.947  0.00  0.00    -0.357 OA
ATOM     34  H18 non d   1      17.501  -3.560 -22.600  0.00  0.00     0.217 HD
ENDBRANCH  15  33
BRANCH  11  35
ATOM     35  C18 non d   1      16.282  -0.518 -23.918  0.00  0.00     0.198 C 
BRANCH  35  36
ATOM     36  O12 non d   1      15.559  -0.578 -22.688  0.00  0.00    -0.398 OA
ATOM     37  H16 non d   1      14.756  -1.104 -22.862  0.00  0.00     0.209 HD
ENDBRANCH  35  36
ENDBRANCH  11  35
BRANCH   9  38
ATOM     38  O10 non d   1      12.547  -2.952 -26.029  0.00  0.00    -0.390 OA
ATOM     39  H10 non d   1      12.344  -3.407 -26.870  0.00  0.00     0.210 HD
ENDBRANCH   9  38
BRANCH  10  40
ATOM     40  O11 non d   1      14.077  -0.540 -25.987  0.00  0.00    -0.390 OA
ATOM     41  H12 non d   1      13.194  -0.236 -25.692  0.00  0.00     0.210 HD
ENDBRANCH  10  40
TORSDOF 11
ENDMDL
MODEL 8
REMARK VINA RESULT:    -7.322     70.162     72.522
REMARK INTER + INTRA:         -12.152
REMARK INTER:                 -11.407
REMARK INTRA:                  -0.744
REMARK UNBOUND:                -0.977
REMARK  11 active torsions:
REMARK  status: ('A' for Active; 'I' for Inactive)
REMARK    1  A    between atoms: O1_2  and  C2_3 
REMARK    2  A    between atoms: C3_4  and  O2_5 
REMARK    3  A    between atoms: O2_5  and  C4_6 
REMARK    4  A    between atoms: C4_6  and  C5_8 
REMARK    5  A    between atoms: C7_10  and  N2_17 
REMARK    6  A    between atoms: C9_12  and  N1_14 
REMARK    7  A    between atoms: C15_26  and  O10_27 
REMARK    8  A    between atoms: C16_28  and  O11_29 
REMARK    9  A    between atoms: C17_30  and  C18_31 
REMARK   10  A    between atoms: C18_31  and  O12_32 
REMARK   11  A    between atoms: C21_36  and  O14_37 
ROOT
ATOM      1  C2  non d   1     -10.505  -4.586 -90.555  0.00  0.00     0.136 A 
ATOM      2  C3  non d   1     -10.339  -5.783 -91.169  0.00  0.00     0.116 A 
ATOM      3  C11 non d   1     -10.498  -6.927 -90.480  0.00  0.00     0.058 A 
ATOM      4  C12 non d   1     -10.836  -6.892 -89.175  0.00  0.00     0.054 A 
ATOM      5  C13 non d   1     -11.029  -8.209 -88.490  0.00  0.00     0.294 C 
ATOM      6  O8  non d   1     -11.153  -9.261 -89.104  0.00  0.00    -0.259 OA
ATOM      7  O9  non d   1     -11.085  -8.185 -87.133  0.00  0.00    -0.306 OA
ATOM      8  C14 non d   1     -10.682  -6.983 -86.453  0.00  0.00     0.197 C 
ATOM      9  C15 non d   1     -11.081  -7.104 -84.985  0.00  0.00     0.181 C 
ATOM     10  C16 non d   1     -10.765  -5.805 -84.234  0.00  0.00     0.180 C 
ATOM     11  C17 non d   1     -11.353  -4.593 -84.974  0.00  0.00     0.177 C 
ATOM     12  O13 non d   1     -10.962  -4.579 -86.366  0.00  0.00    -0.368 OA
ATOM     13  C19 non d   1     -11.372  -5.764 -87.060  0.00  0.00     0.191 C 
ATOM     14  C20 non d   1     -11.010  -5.707 -88.535  0.00  0.00     0.026 A 
ATOM     15  C21 non d   1     -10.827  -4.551 -89.233  0.00  0.00     0.112 A 
ENDROOT
BRANCH   2  16
ATOM     16  O2  non d   1      -9.966  -5.850 -92.529  0.00  0.00    -0.272 OA
BRANCH  16  17
ATOM     17  C4  non d   1      -8.760  -6.462 -92.729  0.00  0.00     0.298 C 
ATOM     18  O3  non d   1      -7.850  -6.587 -91.920  0.00  0.00    -0.259 OA
BRANCH  17  19
ATOM     19  C5  non d   1      -8.663  -6.942 -94.145  0.00  0.00     0.044 A 
ATOM     20  C6  non d   1      -9.632  -7.691 -94.722  0.00  0.00     0.053 A 
ATOM     21  C7  non d   1      -9.474  -8.099 -96.002  0.00  0.00     0.106 A 
ATOM     22  C8  non d   1      -8.376  -7.783 -96.720  0.00  0.00     0.072 A 
ATOM     23  C9  non d   1      -7.422  -7.039 -96.119  0.00  0.00     0.106 A 
ATOM     24  C10 non d   1      -7.548  -6.616 -94.842  0.00  0.00     0.053 A 
BRANCH  21  25
ATOM     25  N2  non d   1     -10.528  -8.911 -96.626  0.00  0.00    -0.116 N 
ATOM     26  O6  non d   1     -11.034  -9.817 -95.950  0.00  0.00    -0.532 OA
ATOM     27  O7  non d   1     -10.848  -8.646 -97.792  0.00  0.00    -0.532 OA
ENDBRANCH  21  25
BRANCH  23  28
ATOM     28  N1  non d   1      -6.214  -6.680 -96.874  0.00  0.00    -0.116 N 
ATOM     29  O4  non d   1      -5.867  -5.491 -96.877  0.00  0.00    -0.532 OA
ATOM     30  O5  non d   1      -5.609  -7.586 -97.464  0.00  0.00    -0.532 OA
ENDBRANCH  23  28
ENDBRANCH  17  19
ENDBRANCH  16  17
ENDBRANCH   2  16
BRANCH   1  31
ATOM     31  O1  non d   1     -10.296  -3.436 -91.315  0.00  0.00    -0.351 OA
ATOM     32  C1  non d   1     -11.491  -2.930 -91.914  0.00  0.00     0.210 C 
ENDBRANCH   1  31
BRANCH  15  33
ATOM     33  O14 non d   1     -10.958  -3.317 -88.609  0.00  0.00    -0.357 OA
ATOM     34  H18 non d   1     -10.276  -3.183 -87.924  0.00  0.00     0.217 HD
ENDBRANCH  15  33
BRANCH  11  35
ATOM     35  C18 non d   1     -10.877  -3.273 -84.352  0.00  0.00     0.198 C 
BRANCH  35  36
ATOM     36  O12 non d   1      -9.452  -3.242 -84.268  0.00  0.00    -0.398 OA
ATOM     37  H16 non d   1      -9.216  -3.583 -83.386  0.00  0.00     0.209 HD
ENDBRANCH  35  36
ENDBRANCH  11  35
BRANCH   9  38
ATOM     38  O10 non d   1     -10.372  -8.180 -84.355  0.00  0.00    -0.390 OA
ATOM     39  H10 non d   1     -11.041  -8.841 -84.089  0.00  0.00     0.210 HD
ENDBRANCH   9  38
BRANCH  10  40
ATOM     40  O11 non d   1     -11.316  -5.899 -82.918  0.00  0.00    -0.390 OA
ATOM     41  H12 non d   1     -11.822  -6.737 -82.907  0.00  0.00     0.210 HD
ENDBRANCH  10  40
TORSDOF 11
ENDMDL
MODEL 9
REMARK VINA RESULT:    -7.265     70.127     72.497
REMARK INTER + INTRA:         -12.065
REMARK INTER:                 -11.309
REMARK INTRA:                  -0.756
REMARK UNBOUND:                -0.977
REMARK  11 active torsions:
REMARK  status: ('A' for Active; 'I' for Inactive)
REMARK    1  A    between atoms: O1_2  and  C2_3 
REMARK    2  A    between atoms: C3_4  and  O2_5 
REMARK    3  A    between atoms: O2_5  and  C4_6 
REMARK    4  A    between atoms: C4_6  and  C5_8 
REMARK    5  A    between atoms: C7_10  and  N2_17 
REMARK    6  A    between atoms: C9_12  and  N1_14 
REMARK    7  A    between atoms: C15_26  and  O10_27 
REMARK    8  A    between atoms: C16_28  and  O11_29 
REMARK    9  A    between atoms: C17_30  and  C18_31 
REMARK   10  A    between atoms: C18_31  and  O12_32 
REMARK   11  A    between atoms: C21_36  and  O14_37 
ROOT
ATOM      1  C2  non d   1     -10.519  -4.654 -90.519  0.00  0.00     0.136 A 
ATOM      2  C3  non d   1     -10.377  -5.864 -91.113  0.00  0.00     0.116 A 
ATOM      3  C11 non d   1     -10.560  -6.993 -90.404  0.00  0.00     0.058 A 
ATOM      4  C12 non d   1     -10.899  -6.929 -89.100  0.00  0.00     0.054 A 
ATOM      5  C13 non d   1     -11.120  -8.229 -88.394  0.00  0.00     0.294 C 
ATOM      6  O8  non d   1     -11.265  -9.289 -88.990  0.00  0.00    -0.259 OA
ATOM      7  O9  non d   1     -11.177  -8.180 -87.037  0.00  0.00    -0.306 OA
ATOM      8  C14 non d   1     -10.751  -6.976 -86.377  0.00  0.00     0.197 C 
ATOM      9  C15 non d   1     -11.153  -7.063 -84.908  0.00  0.00     0.181 C 
ATOM     10  C16 non d   1     -10.812  -5.759 -84.178  0.00  0.00     0.180 C 
ATOM     11  C17 non d   1     -11.375  -4.548 -84.941  0.00  0.00     0.177 C 
ATOM     12  O13 non d   1     -10.981  -4.565 -86.331  0.00  0.00    -0.368 OA
ATOM     13  C19 non d   1     -11.415  -5.753 -87.006  0.00  0.00     0.191 C 
ATOM     14  C20 non d   1     -11.049  -5.729 -88.481  0.00  0.00     0.026 A 
ATOM     15  C21 non d   1     -10.842  -4.589 -89.198  0.00  0.00     0.112 A 
ENDROOT
BRANCH   2  16
ATOM     16  O2  non d   1     -10.003  -5.961 -92.470  0.00  0.00    -0.272 OA
BRANCH  16  17
ATOM     17  C4  non d   1      -8.766  -6.512 -92.652  0.00  0.00     0.298 C 
ATOM     18  O3  non d   1      -7.877  -6.630 -91.818  0.00  0.00    -0.259 OA
BRANCH  17  19
ATOM     19  C5  non d   1      -8.601  -6.932 -94.081  0.00  0.00     0.044 A 
ATOM     20  C6  non d   1      -7.500  -6.616 -94.804  0.00  0.00     0.053 A 
ATOM     21  C7  non d   1      -7.421  -7.018 -96.092  0.00  0.00     0.106 A 
ATOM     22  C8  non d   1      -8.410  -7.724 -96.680  0.00  0.00     0.072 A 
ATOM     23  C9  non d   1      -9.499  -8.022 -95.939  0.00  0.00     0.106 A 
ATOM     24  C10 non d   1      -9.609  -7.634 -94.649  0.00  0.00     0.053 A 
BRANCH  21  25
ATOM     25  N2  non d   1      -6.225  -6.674 -96.874  0.00  0.00    -0.116 N 
ATOM     26  O6  non d   1      -5.899  -5.481 -96.935  0.00  0.00    -0.532 OA
ATOM     27  O7  non d   1      -5.613  -7.596 -97.430  0.00  0.00    -0.532 OA
ENDBRANCH  21  25
BRANCH  23  28
ATOM     28  N1  non d   1     -10.593  -8.788 -96.551  0.00  0.00    -0.116 N 
ATOM     29  O4  non d   1     -11.200  -9.598 -95.836  0.00  0.00    -0.532 OA
ATOM     30  O5  non d   1     -10.848  -8.581 -97.744  0.00  0.00    -0.532 OA
ENDBRANCH  23  28
ENDBRANCH  17  19
ENDBRANCH  16  17
ENDBRANCH   2  16
BRANCH   1  31
ATOM     31  O1  non d   1     -10.286  -3.521 -91.298  0.00  0.00    -0.351 OA
ATOM     32  C1  non d   1     -11.444  -3.073 -92.004  0.00  0.00     0.210 C 
ENDBRANCH   1  31
BRANCH  15  33
ATOM     33  O14 non d   1     -10.948  -3.342 -88.595  0.00  0.00    -0.357 OA
ATOM     34  H18 non d   1     -10.138  -2.812 -88.714  0.00  0.00     0.217 HD
ENDBRANCH  15  33
BRANCH  11  35
ATOM     35  C18 non d   1     -10.872  -3.228 -84.340  0.00  0.00     0.198 C 
BRANCH  35  36
ATOM     36  O12 non d   1      -9.445  -3.215 -84.275  0.00  0.00    -0.398 OA
ATOM     37  H16 non d   1      -9.137  -3.998 -84.767  0.00  0.00     0.209 HD
ENDBRANCH  35  36
ENDBRANCH  11  35
BRANCH   9  38
ATOM     38  O10 non d   1     -10.468  -8.143 -84.258  0.00  0.00    -0.390 OA
ATOM     39  H10 non d   1      -9.521  -8.052 -84.483  0.00  0.00     0.210 HD
ENDBRANCH   9  38
BRANCH  10  40
ATOM     40  O11 non d   1     -11.367  -5.819 -82.862  0.00  0.00    -0.390 OA
ATOM     41  H12 non d   1     -10.665  -6.207 -82.301  0.00  0.00     0.210 HD
ENDBRANCH  10  40
TORSDOF 11
ENDMDL
