MODEL 1
REMARK VINA RESULT:    -7.259      0.000      0.000
REMARK INTER + INTRA:         -15.100
REMARK INTER:                 -12.988
REMARK INTRA:                  -2.112
REMARK UNBOUND:                -2.112
REMARK  15 active torsions:
REMARK  status: ('A' for Active; 'I' for Inactive)
REMARK    1  A    between atoms: O1_2  and  C2_3 
REMARK    2  A    between atoms: C3_4  and  O2_5 
REMARK    3  A    between atoms: O2_5  and  C4_6 
REMARK    4  A    between atoms: C4_6  and  C5_8 
REMARK    5  A    between atoms: C7_10  and  N2_17 
REMARK    6  A    between atoms: C9_12  and  N1_14 
REMARK    7  A    between atoms: C15_26  and  O10_27 
REMARK    8  A    between atoms: C16_28  and  O11_29 
REMARK    9  A    between atoms: C17_30  and  C18_31 
REMARK   10  A    between atoms: C18_31  and  O12_32 
REMARK   11  A    between atoms: C21_36  and  O14_37 
REMARK   12  A    between atoms: O14_37  and  C22_38 
REMARK   13  A    between atoms: C22_38  and  C23_39 
REMARK   14  A    between atoms: C25_42  and  N4_49 
REMARK   15  A    between atoms: N3_46  and  C28_45 
ROOT
ATOM      1  C2  non d   1      -0.935  -8.686 -56.364  0.00  0.00     0.137 A 
ATOM      2  C3  non d   1      -0.492  -9.393 -57.430  0.00  0.00     0.116 A 
ATOM      3  C11 non d   1       0.098  -8.756 -58.459  0.00  0.00     0.058 A 
ATOM      4  C12 non d   1       0.244  -7.415 -58.435  0.00  0.00     0.054 A 
ATOM      5  C13 non d   1       0.887  -6.784 -59.628  0.00  0.00     0.294 C 
ATOM      6  O8  non d   1       1.556  -7.421 -60.432  0.00  0.00    -0.259 OA
ATOM      7  O9  non d   1       0.692  -5.447 -59.783  0.00  0.00    -0.306 OA
ATOM      8  C14 non d   1      -0.213  -4.772 -58.886  0.00  0.00     0.197 C 
ATOM      9  C15 non d   1      -0.007  -3.269 -59.056  0.00  0.00     0.181 C 
ATOM     10  C16 non d   1      -0.845  -2.494 -58.037  0.00  0.00     0.180 C 
ATOM     11  C17 non d   1      -0.558  -3.016 -56.623  0.00  0.00     0.177 C 
ATOM     12  O13 non d   1      -0.755  -4.442 -56.538  0.00  0.00    -0.368 OA
ATOM     13  C19 non d   1       0.069  -5.180 -57.438  0.00  0.00     0.191 C 
ATOM     14  C20 non d   1      -0.158  -6.685 -57.362  0.00  0.00     0.026 A 
ATOM     15  C21 non d   1      -0.742  -7.340 -56.319  0.00  0.00     0.125 A 
ENDROOT
BRANCH   2  16
ATOM     16  O2  non d   1      -0.612 -10.799 -57.452  0.00  0.00    -0.272 OA
BRANCH  16  17
ATOM     17  C4  non d   1      -0.927 -11.306 -58.681  0.00  0.00     0.298 C 
ATOM     18  O3  non d   1      -0.153 -11.562 -59.593  0.00  0.00    -0.259 OA
BRANCH  17  19
ATOM     19  C5  non d   1      -2.402 -11.552 -58.768  0.00  0.00     0.044 A 
ATOM     20  C6  non d   1      -3.213 -11.476 -57.686  0.00  0.00     0.053 A 
ATOM     21  C7  non d   1      -4.536 -11.703 -57.840  0.00  0.00     0.106 A 
ATOM     22  C8  non d   1      -5.075 -12.001 -59.042  0.00  0.00     0.072 A 
ATOM     23  C9  non d   1      -4.245 -12.068 -60.105  0.00  0.00     0.106 A 
ATOM     24  C10 non d   1      -2.918 -11.845 -59.986  0.00  0.00     0.053 A 
BRANCH  21  25
ATOM     25  N2  non d   1      -5.416 -11.615 -56.665  0.00  0.00    -0.116 N 
ATOM     26  O6  non d   1      -5.287 -10.635 -55.921  0.00  0.00    -0.532 OA
ATOM     27  O7  non d   1      -6.236 -12.525 -56.489  0.00  0.00    -0.532 OA
ENDBRANCH  21  25
BRANCH  23  28
ATOM     28  N1  non d   1      -4.800 -12.390 -61.426  0.00  0.00    -0.116 N 
ATOM     29  O4  non d   1      -4.086 -12.189 -62.417  0.00  0.00    -0.532 OA
ATOM     30  O5  non d   1      -5.952 -12.844 -61.474  0.00  0.00    -0.532 OA
ENDBRANCH  23  28
ENDBRANCH  17  19
ENDBRANCH  16  17
ENDBRANCH   2  16
BRANCH   1  31
ATOM     31  O1  non d   1      -1.528  -9.360 -55.297  0.00  0.00    -0.351 OA
ATOM     32  C1  non d   1      -0.568 -10.133 -54.572  0.00  0.00     0.210 C 
ENDBRANCH   1  31
BRANCH  15  33
ATOM     33  O14 non d   1      -1.184  -6.645 -55.173  0.00  0.00    -0.271 OA
BRANCH  33  34
ATOM     34  C22 non d   1      -0.213  -6.490 -54.227  0.00  0.00     0.298 C 
ATOM     35  O15 non d   1       0.830  -7.122 -54.122  0.00  0.00    -0.259 OA
BRANCH  34  36
ATOM     36  C23 non d   1      -0.615  -5.414 -53.269  0.00  0.00     0.044 A 
ATOM     37  C26 non d   1       0.351  -4.860 -52.498  0.00  0.00     0.053 A 
ATOM     38  C25 non d   1       0.021  -3.879 -51.630  0.00  0.00     0.106 A 
ATOM     39  C24 non d   1      -1.246  -3.426 -51.515  0.00  0.00     0.072 A 
ATOM     40  C28 non d   1      -2.187  -3.991 -52.301  0.00  0.00     0.106 A 
ATOM     41  C27 non d   1      -1.896  -4.982 -53.171  0.00  0.00     0.053 A 
BRANCH  38  42
ATOM     42  N4  non d   1       1.070  -3.283 -50.792  0.00  0.00    -0.116 N 
ATOM     43  O18 non d   1       1.493  -2.162 -51.111  0.00  0.00    -0.532 OA
ATOM     44  O19 non d   1       1.472  -3.933 -49.818  0.00  0.00    -0.532 OA
ENDBRANCH  38  42
BRANCH  40  45
ATOM     45  N3  non d   1      -3.564  -3.498 -52.223  0.00  0.00    -0.116 N 
ATOM     46  O16 non d   1      -3.901  -2.604 -53.015  0.00  0.00    -0.532 OA
ATOM     47  O17 non d   1      -4.302  -3.992 -51.362  0.00  0.00    -0.532 OA
ENDBRANCH  40  45
ENDBRANCH  34  36
ENDBRANCH  33  34
ENDBRANCH  15  33
BRANCH  11  48
ATOM     48  C18 non d   1      -1.458  -2.332 -55.583  0.00  0.00     0.198 C 
BRANCH  48  49
ATOM     49  O12 non d   1      -2.817  -2.731 -55.748  0.00  0.00    -0.398 OA
ATOM     50  H16 non d   1      -2.835  -3.414 -56.449  0.00  0.00     0.209 HD
ENDBRANCH  48  49
ENDBRANCH  11  48
BRANCH   9  51
ATOM     51  O10 non d   1      -0.388  -2.850 -60.376  0.00  0.00    -0.390 OA
ATOM     52  H10 non d   1      -1.284  -2.468 -60.300  0.00  0.00     0.210 HD
ENDBRANCH   9  51
BRANCH  10  53
ATOM     53  O11 non d   1      -0.509  -1.106 -58.140  0.00  0.00    -0.390 OA
ATOM     54  H12 non d   1      -1.291  -0.628 -57.793  0.00  0.00     0.210 HD
ENDBRANCH  10  53
TORSDOF 15
ENDMDL
MODEL 2
REMARK VINA RESULT:    -7.208      0.239      2.106
REMARK INTER + INTRA:         -15.009
REMARK INTER:                 -12.950
REMARK INTRA:                  -2.058
REMARK UNBOUND:                -2.112
REMARK  15 active torsions:
REMARK  status: ('A' for Active; 'I' for Inactive)
REMARK    1  A    between atoms: O1_2  and  C2_3 
REMARK    2  A    between atoms: C3_4  and  O2_5 
REMARK    3  A    between atoms: O2_5  and  C4_6 
REMARK    4  A    between atoms: C4_6  and  C5_8 
REMARK    5  A    between atoms: C7_10  and  N2_17 
REMARK    6  A    between atoms: C9_12  and  N1_14 
REMARK    7  A    between atoms: C15_26  and  O10_27 
REMARK    8  A    between atoms: C16_28  and  O11_29 
REMARK    9  A    between atoms: C17_30  and  C18_31 
REMARK   10  A    between atoms: C18_31  and  O12_32 
REMARK   11  A    between atoms: C21_36  and  O14_37 
REMARK   12  A    between atoms: O14_37  and  C22_38 
REMARK   13  A    between atoms: C22_38  and  C23_39 
REMARK   14  A    between atoms: C25_42  and  N4_49 
REMARK   15  A    between atoms: N3_46  and  C28_45 
ROOT
ATOM      1  C2  non d   1      -0.886  -8.678 -56.338  0.00  0.00     0.137 A 
ATOM      2  C3  non d   1      -0.454  -9.387 -57.407  0.00  0.00     0.116 A 
ATOM      3  C11 non d   1       0.127  -8.751 -58.443  0.00  0.00     0.058 A 
ATOM      4  C12 non d   1       0.274  -7.411 -58.422  0.00  0.00     0.054 A 
ATOM      5  C13 non d   1       0.906  -6.781 -59.621  0.00  0.00     0.294 C 
ATOM      6  O8  non d   1       1.567  -7.419 -60.431  0.00  0.00    -0.259 OA
ATOM      7  O9  non d   1       0.710  -5.444 -59.776  0.00  0.00    -0.306 OA
ATOM      8  C14 non d   1      -0.186  -4.767 -58.870  0.00  0.00     0.197 C 
ATOM      9  C15 non d   1       0.019  -3.265 -59.044  0.00  0.00     0.181 C 
ATOM     10  C16 non d   1      -0.808  -2.488 -58.018  0.00  0.00     0.180 C 
ATOM     11  C17 non d   1      -0.508  -3.009 -56.607  0.00  0.00     0.177 C 
ATOM     12  O13 non d   1      -0.705  -4.435 -56.518  0.00  0.00    -0.368 OA
ATOM     13  C19 non d   1       0.110  -5.174 -57.425  0.00  0.00     0.191 C 
ATOM     14  C20 non d   1      -0.118  -6.679 -57.346  0.00  0.00     0.026 A 
ATOM     15  C21 non d   1      -0.692  -7.333 -56.297  0.00  0.00     0.125 A 
ENDROOT
BRANCH   2  16
ATOM     16  O2  non d   1      -0.575 -10.793 -57.427  0.00  0.00    -0.272 OA
BRANCH  16  17
ATOM     17  C4  non d   1      -0.890 -11.301 -58.655  0.00  0.00     0.298 C 
ATOM     18  O3  non d   1      -0.116 -11.551 -59.570  0.00  0.00    -0.259 OA
BRANCH  17  19
ATOM     19  C5  non d   1      -2.363 -11.560 -58.737  0.00  0.00     0.044 A 
ATOM     20  C6  non d   1      -3.175 -11.469 -57.658  0.00  0.00     0.053 A 
ATOM     21  C7  non d   1      -4.496 -11.708 -57.807  0.00  0.00     0.106 A 
ATOM     22  C8  non d   1      -5.033 -12.034 -59.003  0.00  0.00     0.072 A 
ATOM     23  C9  non d   1      -4.201 -12.116 -60.064  0.00  0.00     0.106 A 
ATOM     24  C10 non d   1      -2.876 -11.881 -59.949  0.00  0.00     0.053 A 
BRANCH  21  25
ATOM     25  N2  non d   1      -5.377 -11.603 -56.635  0.00  0.00    -0.116 N 
ATOM     26  O6  non d   1      -6.213 -12.499 -56.460  0.00  0.00    -0.532 OA
ATOM     27  O7  non d   1      -5.231 -10.626 -55.888  0.00  0.00    -0.532 OA
ENDBRANCH  21  25
BRANCH  23  28
ATOM     28  N1  non d   1      -4.754 -12.469 -61.378  0.00  0.00    -0.116 N 
ATOM     29  O4  non d   1      -5.942 -12.814 -61.431  0.00  0.00    -0.532 OA
ATOM     30  O5  non d   1      -4.000 -12.405 -62.359  0.00  0.00    -0.532 OA
ENDBRANCH  23  28
ENDBRANCH  17  19
ENDBRANCH  16  17
ENDBRANCH   2  16
BRANCH   1  31
ATOM     31  O1  non d   1      -1.470  -9.351 -55.265  0.00  0.00    -0.351 OA
ATOM     32  C1  non d   1      -0.520 -10.183 -54.594  0.00  0.00     0.210 C 
ENDBRANCH   1  31
BRANCH  15  33
ATOM     33  O14 non d   1      -1.123  -6.636 -55.147  0.00  0.00    -0.271 OA
BRANCH  33  34
ATOM     34  C22 non d   1      -0.152  -6.510 -54.196  0.00  0.00     0.298 C 
ATOM     35  O15 non d   1       0.835  -7.216 -54.044  0.00  0.00    -0.259 OA
BRANCH  34  36
ATOM     36  C23 non d   1      -0.478  -5.358 -53.298  0.00  0.00     0.044 A 
ATOM     37  C26 non d   1      -1.778  -4.996 -53.181  0.00  0.00     0.053 A 
ATOM     38  C25 non d   1      -2.105  -3.966 -52.371  0.00  0.00     0.106 A 
ATOM     39  C24 non d   1      -1.173  -3.291 -51.664  0.00  0.00     0.072 A 
ATOM     40  C28 non d   1       0.113  -3.679 -51.794  0.00  0.00     0.106 A 
ATOM     41  C27 non d   1       0.479  -4.696 -52.604  0.00  0.00     0.053 A 
BRANCH  38  42
ATOM     42  N4  non d   1      -3.515  -3.573 -52.249  0.00  0.00    -0.116 N 
ATOM     43  O18 non d   1      -3.929  -2.674 -52.995  0.00  0.00    -0.532 OA
ATOM     44  O19 non d   1      -4.209  -4.160 -51.408  0.00  0.00    -0.532 OA
ENDBRANCH  38  42
BRANCH  40  45
ATOM     45  N3  non d   1       1.143  -2.989 -51.015  0.00  0.00    -0.116 N 
ATOM     46  O16 non d   1       2.155  -2.597 -51.617  0.00  0.00    -0.532 OA
ATOM     47  O17 non d   1       0.949  -2.853 -49.800  0.00  0.00    -0.532 OA
ENDBRANCH  40  45
ENDBRANCH  34  36
ENDBRANCH  33  34
ENDBRANCH  15  33
BRANCH  11  48
ATOM     48  C18 non d   1      -1.398  -2.323 -55.559  0.00  0.00     0.198 C 
BRANCH  48  49
ATOM     49  O12 non d   1      -2.759  -2.722 -55.710  0.00  0.00    -0.398 OA
ATOM     50  H16 non d   1      -3.275  -2.254 -55.022  0.00  0.00     0.209 HD
ENDBRANCH  48  49
ENDBRANCH  11  48
BRANCH   9  51
ATOM     51  O10 non d   1      -0.373  -2.847 -60.361  0.00  0.00    -0.390 OA
ATOM     52  H10 non d   1      -1.151  -3.386 -60.605  0.00  0.00     0.210 HD
ENDBRANCH   9  51
BRANCH  10  53
ATOM     53  O11 non d   1      -0.472  -1.101 -58.126  0.00  0.00    -0.390 OA
ATOM     54  H12 non d   1       0.261  -0.966 -57.490  0.00  0.00     0.210 HD
ENDBRANCH  10  53
TORSDOF 15
ENDMDL
MODEL 3
REMARK VINA RESULT:    -7.200      0.307      2.123
REMARK INTER + INTRA:         -14.994
REMARK INTER:                 -12.910
REMARK INTRA:                  -2.084
REMARK UNBOUND:                -2.112
REMARK  15 active torsions:
REMARK  status: ('A' for Active; 'I' for Inactive)
REMARK    1  A    between atoms: O1_2  and  C2_3 
REMARK    2  A    between atoms: C3_4  and  O2_5 
REMARK    3  A    between atoms: O2_5  and  C4_6 
REMARK    4  A    between atoms: C4_6  and  C5_8 
REMARK    5  A    between atoms: C7_10  and  N2_17 
REMARK    6  A    between atoms: C9_12  and  N1_14 
REMARK    7  A    between atoms: C15_26  and  O10_27 
REMARK    8  A    between atoms: C16_28  and  O11_29 
REMARK    9  A    between atoms: C17_30  and  C18_31 
REMARK   10  A    between atoms: C18_31  and  O12_32 
REMARK   11  A    between atoms: C21_36  and  O14_37 
REMARK   12  A    between atoms: O14_37  and  C22_38 
REMARK   13  A    between atoms: C22_38  and  C23_39 
REMARK   14  A    between atoms: C25_42  and  N4_49 
REMARK   15  A    between atoms: N3_46  and  C28_45 
ROOT
ATOM      1  C2  non d   1      -0.962  -8.740 -56.336  0.00  0.00     0.137 A 
ATOM      2  C3  non d   1      -0.532  -9.462 -57.398  0.00  0.00     0.116 A 
ATOM      3  C11 non d   1       0.055  -8.840 -58.439  0.00  0.00     0.058 A 
ATOM      4  C12 non d   1       0.212  -7.501 -58.430  0.00  0.00     0.054 A 
ATOM      5  C13 non d   1       0.851  -6.887 -59.634  0.00  0.00     0.294 C 
ATOM      6  O8  non d   1       1.508  -7.537 -60.437  0.00  0.00    -0.259 OA
ATOM      7  O9  non d   1       0.664  -5.550 -59.802  0.00  0.00    -0.306 OA
ATOM      8  C14 non d   1      -0.229  -4.858 -58.905  0.00  0.00     0.197 C 
ATOM      9  C15 non d   1      -0.013  -3.360 -59.092  0.00  0.00     0.181 C 
ATOM     10  C16 non d   1      -0.836  -2.567 -58.075  0.00  0.00     0.180 C 
ATOM     11  C17 non d   1      -0.543  -3.076 -56.658  0.00  0.00     0.177 C 
ATOM     12  O13 non d   1      -0.750  -4.501 -56.557  0.00  0.00    -0.368 OA
ATOM     13  C19 non d   1       0.061  -5.254 -57.455  0.00  0.00     0.191 C 
ATOM     14  C20 non d   1      -0.177  -6.756 -57.362  0.00  0.00     0.026 A 
ATOM     15  C21 non d   1      -0.758  -7.396 -56.308  0.00  0.00     0.125 A 
ENDROOT
BRANCH   2  16
ATOM     16  O2  non d   1      -0.663 -10.867 -57.405  0.00  0.00    -0.272 OA
BRANCH  16  17
ATOM     17  C4  non d   1      -0.915 -11.391 -58.641  0.00  0.00     0.298 C 
ATOM     18  O3  non d   1      -0.093 -11.691 -59.496  0.00  0.00    -0.259 OA
BRANCH  17  19
ATOM     19  C5  non d   1      -2.388 -11.595 -58.818  0.00  0.00     0.044 A 
ATOM     20  C6  non d   1      -2.940 -11.875 -60.022  0.00  0.00     0.053 A 
ATOM     21  C7  non d   1      -4.277 -12.055 -60.106  0.00  0.00     0.106 A 
ATOM     22  C8  non d   1      -5.080 -11.964 -59.024  0.00  0.00     0.072 A 
ATOM     23  C9  non d   1      -4.504 -11.686 -57.835  0.00  0.00     0.106 A 
ATOM     24  C10 non d   1      -3.171 -11.503 -57.715  0.00  0.00     0.053 A 
BRANCH  21  25
ATOM     25  N2  non d   1      -4.874 -12.365 -61.413  0.00  0.00    -0.116 N 
ATOM     26  O6  non d   1      -4.315 -11.916 -62.423  0.00  0.00    -0.532 OA
ATOM     27  O7  non d   1      -5.899 -13.058 -61.430  0.00  0.00    -0.532 OA
ENDBRANCH  21  25
BRANCH  23  28
ATOM     28  N1  non d   1      -5.350 -11.581 -56.638  0.00  0.00    -0.116 N 
ATOM     29  O4  non d   1      -6.194 -12.466 -56.449  0.00  0.00    -0.532 OA
ATOM     30  O5  non d   1      -5.172 -10.611 -55.888  0.00  0.00    -0.532 OA
ENDBRANCH  23  28
ENDBRANCH  17  19
ENDBRANCH  16  17
ENDBRANCH   2  16
BRANCH   1  31
ATOM     31  O1  non d   1      -1.551  -9.399 -55.258  0.00  0.00    -0.351 OA
ATOM     32  C1  non d   1      -0.590 -10.161 -54.525  0.00  0.00     0.210 C 
ENDBRANCH   1  31
BRANCH  15  33
ATOM     33  O14 non d   1      -1.186  -6.685 -55.166  0.00  0.00    -0.271 OA
BRANCH  33  34
ATOM     34  C22 non d   1      -0.199  -6.505 -54.240  0.00  0.00     0.298 C 
ATOM     35  O15 non d   1       0.857  -7.116 -54.152  0.00  0.00    -0.259 OA
BRANCH  34  36
ATOM     36  C23 non d   1      -0.604  -5.429 -53.281  0.00  0.00     0.044 A 
ATOM     37  C26 non d   1       0.362  -4.875 -52.510  0.00  0.00     0.053 A 
ATOM     38  C25 non d   1       0.030  -3.896 -51.641  0.00  0.00     0.106 A 
ATOM     39  C24 non d   1      -1.237  -3.444 -51.526  0.00  0.00     0.072 A 
ATOM     40  C28 non d   1      -2.177  -4.009 -52.313  0.00  0.00     0.106 A 
ATOM     41  C27 non d   1      -1.884  -4.999 -53.184  0.00  0.00     0.053 A 
BRANCH  38  42
ATOM     42  N4  non d   1       1.078  -3.299 -50.802  0.00  0.00    -0.116 N 
ATOM     43  O18 non d   1       0.724  -2.518 -49.908  0.00  0.00    -0.532 OA
ATOM     44  O19 non d   1       2.254  -3.610 -51.036  0.00  0.00    -0.532 OA
ENDBRANCH  38  42
BRANCH  40  45
ATOM     45  N3  non d   1      -3.554  -3.517 -52.237  0.00  0.00    -0.116 N 
ATOM     46  O16 non d   1      -4.299  -4.020 -51.381  0.00  0.00    -0.532 OA
ATOM     47  O17 non d   1      -3.896  -2.640 -53.040  0.00  0.00    -0.532 OA
ENDBRANCH  40  45
ENDBRANCH  34  36
ENDBRANCH  33  34
ENDBRANCH  15  33
BRANCH  11  48
ATOM     48  C18 non d   1      -1.430  -2.375 -55.619  0.00  0.00     0.198 C 
BRANCH  48  49
ATOM     49  O12 non d   1      -2.797  -2.746 -55.785  0.00  0.00    -0.398 OA
ATOM     50  H16 non d   1      -3.126  -3.033 -54.909  0.00  0.00     0.209 HD
ENDBRANCH  48  49
ENDBRANCH  11  48
BRANCH   9  51
ATOM     51  O10 non d   1      -0.400  -2.951 -60.414  0.00  0.00    -0.390 OA
ATOM     52  H10 non d   1       0.361  -3.136 -60.998  0.00  0.00     0.210 HD
ENDBRANCH   9  51
BRANCH  10  53
ATOM     53  O11 non d   1      -0.491  -1.183 -58.195  0.00  0.00    -0.390 OA
ATOM     54  H12 non d   1      -1.000  -0.859 -58.968  0.00  0.00     0.210 HD
ENDBRANCH  10  53
TORSDOF 15
ENDMDL
MODEL 4
REMARK VINA RESULT:    -7.183      0.108      2.911
REMARK INTER + INTRA:         -14.964
REMARK INTER:                 -12.921
REMARK INTRA:                  -2.043
REMARK UNBOUND:                -2.112
REMARK  15 active torsions:
REMARK  status: ('A' for Active; 'I' for Inactive)
REMARK    1  A    between atoms: O1_2  and  C2_3 
REMARK    2  A    between atoms: C3_4  and  O2_5 
REMARK    3  A    between atoms: O2_5  and  C4_6 
REMARK    4  A    between atoms: C4_6  and  C5_8 
REMARK    5  A    between atoms: C7_10  and  N2_17 
REMARK    6  A    between atoms: C9_12  and  N1_14 
REMARK    7  A    between atoms: C15_26  and  O10_27 
REMARK    8  A    between atoms: C16_28  and  O11_29 
REMARK    9  A    between atoms: C17_30  and  C18_31 
REMARK   10  A    between atoms: C18_31  and  O12_32 
REMARK   11  A    between atoms: C21_36  and  O14_37 
REMARK   12  A    between atoms: O14_37  and  C22_38 
REMARK   13  A    between atoms: C22_38  and  C23_39 
REMARK   14  A    between atoms: C25_42  and  N4_49 
REMARK   15  A    between atoms: N3_46  and  C28_45 
ROOT
ATOM      1  C2  non d   1      -0.950  -8.709 -56.290  0.00  0.00     0.137 A 
ATOM      2  C3  non d   1      -0.539  -9.435 -57.357  0.00  0.00     0.116 A 
ATOM      3  C11 non d   1       0.048  -8.820 -58.401  0.00  0.00     0.058 A 
ATOM      4  C12 non d   1       0.223  -7.483 -58.392  0.00  0.00     0.054 A 
ATOM      5  C13 non d   1       0.861  -6.876 -59.600  0.00  0.00     0.294 C 
ATOM      6  O8  non d   1       1.503  -7.534 -60.409  0.00  0.00    -0.259 OA
ATOM      7  O9  non d   1       0.692  -5.536 -59.764  0.00  0.00    -0.306 OA
ATOM      8  C14 non d   1      -0.184  -4.834 -58.859  0.00  0.00     0.197 C 
ATOM      9  C15 non d   1       0.051  -3.338 -59.046  0.00  0.00     0.181 C 
ATOM     10  C16 non d   1      -0.753  -2.535 -58.021  0.00  0.00     0.180 C 
ATOM     11  C17 non d   1      -0.456  -3.051 -56.607  0.00  0.00     0.177 C 
ATOM     12  O13 non d   1      -0.682  -4.472 -56.506  0.00  0.00    -0.368 OA
ATOM     13  C19 non d   1       0.112  -5.235 -57.412  0.00  0.00     0.191 C 
ATOM     14  C20 non d   1      -0.146  -6.734 -57.319  0.00  0.00     0.026 A 
ATOM     15  C21 non d   1      -0.727  -7.368 -56.261  0.00  0.00     0.125 A 
ENDROOT
BRANCH   2  16
ATOM     16  O2  non d   1      -0.689 -10.839 -57.364  0.00  0.00    -0.272 OA
BRANCH  16  17
ATOM     17  C4  non d   1      -0.924 -11.360 -58.604  0.00  0.00     0.298 C 
ATOM     18  O3  non d   1      -0.091 -11.648 -59.453  0.00  0.00    -0.259 OA
BRANCH  17  19
ATOM     19  C5  non d   1      -2.393 -11.579 -58.796  0.00  0.00     0.044 A 
ATOM     20  C6  non d   1      -2.931 -11.861 -60.006  0.00  0.00     0.053 A 
ATOM     21  C7  non d   1      -4.265 -12.055 -60.104  0.00  0.00     0.106 A 
ATOM     22  C8  non d   1      -5.079 -11.977 -59.029  0.00  0.00     0.072 A 
ATOM     23  C9  non d   1      -4.517 -11.698 -57.833  0.00  0.00     0.106 A 
ATOM     24  C10 non d   1      -3.187 -11.501 -57.701  0.00  0.00     0.053 A 
BRANCH  21  25
ATOM     25  N2  non d   1      -4.846 -12.365 -61.418  0.00  0.00    -0.116 N 
ATOM     26  O6  non d   1      -5.935 -12.953 -61.442  0.00  0.00    -0.532 OA
ATOM     27  O7  non d   1      -4.215 -12.019 -62.425  0.00  0.00    -0.532 OA
ENDBRANCH  21  25
BRANCH  23  28
ATOM     28  N1  non d   1      -5.375 -11.607 -56.644  0.00  0.00    -0.116 N 
ATOM     29  O4  non d   1      -5.207 -10.645 -55.883  0.00  0.00    -0.532 OA
ATOM     30  O5  non d   1      -6.217 -12.499 -56.469  0.00  0.00    -0.532 OA
ENDBRANCH  23  28
ENDBRANCH  17  19
ENDBRANCH  16  17
ENDBRANCH   2  16
BRANCH   1  31
ATOM     31  O1  non d   1      -1.540  -9.361 -55.209  0.00  0.00    -0.351 OA
ATOM     32  C1  non d   1      -0.594 -10.177 -54.513  0.00  0.00     0.210 C 
ENDBRANCH   1  31
BRANCH  15  33
ATOM     33  O14 non d   1      -1.136  -6.653 -55.115  0.00  0.00    -0.271 OA
BRANCH  33  34
ATOM     34  C22 non d   1      -0.149  -6.515 -54.184  0.00  0.00     0.298 C 
ATOM     35  O15 non d   1       0.863  -7.192 -54.067  0.00  0.00    -0.259 OA
BRANCH  34  36
ATOM     36  C23 non d   1      -0.489  -5.390 -53.257  0.00  0.00     0.044 A 
ATOM     37  C26 non d   1      -1.787  -5.013 -53.171  0.00  0.00     0.053 A 
ATOM     38  C25 non d   1      -2.127  -4.007 -52.336  0.00  0.00     0.106 A 
ATOM     39  C24 non d   1      -1.211  -3.372 -51.575  0.00  0.00     0.072 A 
ATOM     40  C28 non d   1       0.073  -3.774 -51.674  0.00  0.00     0.106 A 
ATOM     41  C27 non d   1       0.452  -4.767 -52.507  0.00  0.00     0.053 A 
BRANCH  38  42
ATOM     42  N4  non d   1      -3.535  -3.596 -52.248  0.00  0.00    -0.116 N 
ATOM     43  O18 non d   1      -4.237  -4.131 -51.379  0.00  0.00    -0.532 OA
ATOM     44  O19 non d   1      -3.940  -2.741 -53.047  0.00  0.00    -0.532 OA
ENDBRANCH  38  42
BRANCH  40  45
ATOM     45  N3  non d   1       1.085  -3.128 -50.836  0.00  0.00    -0.116 N 
ATOM     46  O16 non d   1       1.539  -2.038 -51.218  0.00  0.00    -0.532 OA
ATOM     47  O17 non d   1       1.437  -3.715 -49.805  0.00  0.00    -0.532 OA
ENDBRANCH  40  45
ENDBRANCH  34  36
ENDBRANCH  33  34
ENDBRANCH  15  33
BRANCH  11  48
ATOM     48  C18 non d   1      -1.324  -2.339 -55.560  0.00  0.00     0.198 C 
BRANCH  48  49
ATOM     49  O12 non d   1      -2.691  -2.729 -55.684  0.00  0.00    -0.398 OA
ATOM     50  H16 non d   1      -2.712  -3.531 -56.244  0.00  0.00     0.209 HD
ENDBRANCH  48  49
ENDBRANCH  11  48
BRANCH   9  51
ATOM     51  O10 non d   1      -0.341  -2.922 -60.364  0.00  0.00    -0.390 OA
ATOM     52  H10 non d   1      -0.308  -1.945 -60.370  0.00  0.00     0.210 HD
ENDBRANCH   9  51
BRANCH  10  53
ATOM     53  O11 non d   1      -0.390  -1.156 -58.142  0.00  0.00    -0.390 OA
ATOM     54  H12 non d   1      -1.081  -0.666 -57.650  0.00  0.00     0.210 HD
ENDBRANCH  10  53
TORSDOF 15
ENDMDL
MODEL 5
REMARK VINA RESULT:    -7.182      1.331      1.581
REMARK INTER + INTRA:         -14.962
REMARK INTER:                 -12.937
REMARK INTRA:                  -2.025
REMARK UNBOUND:                -2.112
REMARK  15 active torsions:
REMARK  status: ('A' for Active; 'I' for Inactive)
REMARK    1  A    between atoms: O1_2  and  C2_3 
REMARK    2  A    between atoms: C3_4  and  O2_5 
REMARK    3  A    between atoms: O2_5  and  C4_6 
REMARK    4  A    between atoms: C4_6  and  C5_8 
REMARK    5  A    between atoms: C7_10  and  N2_17 
REMARK    6  A    between atoms: C9_12  and  N1_14 
REMARK    7  A    between atoms: C15_26  and  O10_27 
REMARK    8  A    between atoms: C16_28  and  O11_29 
REMARK    9  A    between atoms: C17_30  and  C18_31 
REMARK   10  A    between atoms: C18_31  and  O12_32 
REMARK   11  A    between atoms: C21_36  and  O14_37 
REMARK   12  A    between atoms: O14_37  and  C22_38 
REMARK   13  A    between atoms: C22_38  and  C23_39 
REMARK   14  A    between atoms: C25_42  and  N4_49 
REMARK   15  A    between atoms: N3_46  and  C28_45 
ROOT
ATOM      1  C2  non d   1      -0.814  -8.504 -56.623  0.00  0.00     0.137 A 
ATOM      2  C3  non d   1      -0.332  -9.125 -57.725  0.00  0.00     0.116 A 
ATOM      3  C11 non d   1       0.262  -8.404 -58.695  0.00  0.00     0.058 A 
ATOM      4  C12 non d   1       0.372  -7.065 -58.577  0.00  0.00     0.054 A 
ATOM      5  C13 non d   1       1.022  -6.337 -59.710  0.00  0.00     0.294 C 
ATOM      6  O8  non d   1       1.723  -6.900 -60.541  0.00  0.00    -0.259 OA
ATOM      7  O9  non d   1       0.794  -4.998 -59.777  0.00  0.00    -0.306 OA
ATOM      8  C14 non d   1      -0.145  -4.409 -58.855  0.00  0.00     0.197 C 
ATOM      9  C15 non d   1       0.024  -2.894 -58.918  0.00  0.00     0.181 C 
ATOM     10  C16 non d   1      -0.853  -2.211 -57.866  0.00  0.00     0.180 C 
ATOM     11  C17 non d   1      -0.581  -2.822 -56.486  0.00  0.00     0.177 C 
ATOM     12  O13 non d   1      -0.742  -4.255 -56.503  0.00  0.00    -0.368 OA
ATOM     13  C19 non d   1       0.119  -4.909 -57.433  0.00  0.00     0.191 C 
ATOM     14  C20 non d   1      -0.070  -6.420 -57.465  0.00  0.00     0.026 A 
ATOM     15  C21 non d   1      -0.657  -7.160 -56.482  0.00  0.00     0.125 A 
ENDROOT
BRANCH   2  16
ATOM     16  O2  non d   1      -0.414 -10.529 -57.846  0.00  0.00    -0.272 OA
BRANCH  16  17
ATOM     17  C4  non d   1      -1.253 -10.948 -58.839  0.00  0.00     0.298 C 
ATOM     18  O3  non d   1      -1.190 -10.661 -60.027  0.00  0.00    -0.259 OA
BRANCH  17  19
ATOM     19  C5  non d   1      -2.289 -11.871 -58.275  0.00  0.00     0.044 A 
ATOM     20  C6  non d   1      -3.393 -11.416 -57.636  0.00  0.00     0.053 A 
ATOM     21  C7  non d   1      -4.291 -12.306 -57.160  0.00  0.00     0.106 A 
ATOM     22  C8  non d   1      -4.122 -13.638 -57.304  0.00  0.00     0.072 A 
ATOM     23  C9  non d   1      -3.014 -14.065 -57.948  0.00  0.00     0.106 A 
ATOM     24  C10 non d   1      -2.098 -13.202 -58.438  0.00  0.00     0.053 A 
BRANCH  21  25
ATOM     25  N2  non d   1      -5.491 -11.810 -56.471  0.00  0.00    -0.116 N 
ATOM     26  O6  non d   1      -5.463 -10.655 -56.024  0.00  0.00    -0.532 OA
ATOM     27  O7  non d   1      -6.461 -12.573 -56.379  0.00  0.00    -0.532 OA
ENDBRANCH  21  25
BRANCH  23  28
ATOM     28  N1  non d   1      -2.800 -15.508 -58.121  0.00  0.00    -0.116 N 
ATOM     29  O4  non d   1      -1.987 -15.873 -58.980  0.00  0.00    -0.532 OA
ATOM     30  O5  non d   1      -3.448 -16.279 -57.399  0.00  0.00    -0.532 OA
ENDBRANCH  23  28
ENDBRANCH  17  19
ENDBRANCH  16  17
ENDBRANCH   2  16
BRANCH   1  31
ATOM     31  O1  non d   1      -1.410  -9.264 -55.618  0.00  0.00    -0.351 OA
ATOM     32  C1  non d   1      -0.455 -10.104 -54.964  0.00  0.00     0.210 C 
ENDBRANCH   1  31
BRANCH  15  33
ATOM     33  O14 non d   1      -1.140  -6.557 -55.301  0.00  0.00    -0.271 OA
BRANCH  33  34
ATOM     34  C22 non d   1      -0.204  -6.484 -54.311  0.00  0.00     0.298 C 
ATOM     35  O15 non d   1       0.797  -7.176 -54.181  0.00  0.00    -0.259 OA
BRANCH  34  36
ATOM     36  C23 non d   1      -0.590  -5.415 -53.336  0.00  0.00     0.044 A 
ATOM     37  C26 non d   1       0.396  -4.838 -52.609  0.00  0.00     0.053 A 
ATOM     38  C25 non d   1       0.082  -3.864 -51.727  0.00  0.00     0.106 A 
ATOM     39  C24 non d   1      -1.189  -3.439 -51.558  0.00  0.00     0.072 A 
ATOM     40  C28 non d   1      -2.149  -4.026 -52.303  0.00  0.00     0.106 A 
ATOM     41  C27 non d   1      -1.874  -5.012 -53.184  0.00  0.00     0.053 A 
BRANCH  38  42
ATOM     42  N4  non d   1       1.152  -3.243 -50.937  0.00  0.00    -0.116 N 
ATOM     43  O18 non d   1       1.402  -3.728 -49.824  0.00  0.00    -0.532 OA
ATOM     44  O19 non d   1       1.743  -2.270 -51.425  0.00  0.00    -0.532 OA
ENDBRANCH  38  42
BRANCH  40  45
ATOM     45  N3  non d   1      -3.533  -3.564 -52.166  0.00  0.00    -0.116 N 
ATOM     46  O16 non d   1      -3.914  -2.658 -52.922  0.00  0.00    -0.532 OA
ATOM     47  O17 non d   1      -4.232  -4.096 -51.295  0.00  0.00    -0.532 OA
ENDBRANCH  40  45
ENDBRANCH  34  36
ENDBRANCH  33  34
ENDBRANCH  15  33
BRANCH  11  48
ATOM     48  C18 non d   1      -1.518  -2.234 -55.421  0.00  0.00     0.198 C 
BRANCH  48  49
ATOM     49  O12 non d   1      -2.857  -2.684 -55.620  0.00  0.00    -0.398 OA
ATOM     50  H16 non d   1      -3.207  -2.944 -54.744  0.00  0.00     0.209 HD
ENDBRANCH  48  49
ENDBRANCH  11  48
BRANCH   9  51
ATOM     51  O10 non d   1      -0.341  -2.394 -60.214  0.00  0.00    -0.390 OA
ATOM     52  H10 non d   1      -0.958  -1.651 -60.063  0.00  0.00     0.210 HD
ENDBRANCH   9  51
BRANCH  10  53
ATOM     53  O11 non d   1      -0.552  -0.812 -57.867  0.00  0.00    -0.390 OA
ATOM     54  H12 non d   1       0.390  -0.754 -58.132  0.00  0.00     0.210 HD
ENDBRANCH  10  53
TORSDOF 15
ENDMDL
MODEL 6
REMARK VINA RESULT:    -7.137      2.622      5.742
REMARK INTER + INTRA:         -14.882
REMARK INTER:                 -12.019
REMARK INTRA:                  -2.863
REMARK UNBOUND:                -2.112
REMARK  15 active torsions:
REMARK  status: ('A' for Active; 'I' for Inactive)
REMARK    1  A    between atoms: O1_2  and  C2_3 
REMARK    2  A    between atoms: C3_4  and  O2_5 
REMARK    3  A    between atoms: O2_5  and  C4_6 
REMARK    4  A    between atoms: C4_6  and  C5_8 
REMARK    5  A    between atoms: C7_10  and  N2_17 
REMARK    6  A    between atoms: C9_12  and  N1_14 
REMARK    7  A    between atoms: C15_26  and  O10_27 
REMARK    8  A    between atoms: C16_28  and  O11_29 
REMARK    9  A    between atoms: C17_30  and  C18_31 
REMARK   10  A    between atoms: C18_31  and  O12_32 
REMARK   11  A    between atoms: C21_36  and  O14_37 
REMARK   12  A    between atoms: O14_37  and  C22_38 
REMARK   13  A    between atoms: C22_38  and  C23_39 
REMARK   14  A    between atoms: C25_42  and  N4_49 
REMARK   15  A    between atoms: N3_46  and  C28_45 
ROOT
ATOM      1  C2  non d   1      -0.294 -11.152 -57.563  0.00  0.00     0.137 A 
ATOM      2  C3  non d   1      -0.136 -12.496 -57.603  0.00  0.00     0.116 A 
ATOM      3  C11 non d   1       0.466 -13.131 -56.579  0.00  0.00     0.058 A 
ATOM      4  C12 non d   1       0.919 -12.433 -55.518  0.00  0.00     0.054 A 
ATOM      5  C13 non d   1       1.598 -13.211 -54.437  0.00  0.00     0.294 C 
ATOM      6  O8  non d   1       1.470 -14.422 -54.315  0.00  0.00    -0.259 OA
ATOM      7  O9  non d   1       2.378 -12.499 -53.580  0.00  0.00    -0.306 OA
ATOM      8  C14 non d   1       2.602 -11.100 -53.847  0.00  0.00     0.197 C 
ATOM      9  C15 non d   1       3.218 -10.477 -52.598  0.00  0.00     0.181 C 
ATOM     10  C16 non d   1       3.360  -8.963 -52.767  0.00  0.00     0.180 C 
ATOM     11  C17 non d   1       2.013  -8.356 -53.179  0.00  0.00     0.177 C 
ATOM     12  O13 non d   1       1.481  -9.003 -54.354  0.00  0.00    -0.368 OA
ATOM     13  C19 non d   1       1.282 -10.404 -54.185  0.00  0.00     0.191 C 
ATOM     14  C20 non d   1       0.742 -11.088 -55.436  0.00  0.00     0.026 A 
ATOM     15  C21 non d   1       0.119 -10.456 -56.470  0.00  0.00     0.125 A 
ENDROOT
BRANCH   2  16
ATOM     16  O2  non d   1      -0.634 -13.240 -58.694  0.00  0.00    -0.272 OA
BRANCH  16  17
ATOM     17  C4  non d   1      -1.654 -14.086 -58.364  0.00  0.00     0.298 C 
ATOM     18  O3  non d   1      -1.556 -15.208 -57.884  0.00  0.00    -0.259 OA
BRANCH  17  19
ATOM     19  C5  non d   1      -2.971 -13.430 -58.642  0.00  0.00     0.044 A 
ATOM     20  C6  non d   1      -3.429 -13.232 -59.901  0.00  0.00     0.053 A 
ATOM     21  C7  non d   1      -4.631 -12.641 -60.078  0.00  0.00     0.106 A 
ATOM     22  C8  non d   1      -5.392 -12.242 -59.036  0.00  0.00     0.072 A 
ATOM     23  C9  non d   1      -4.913 -12.454 -57.790  0.00  0.00     0.106 A 
ATOM     24  C10 non d   1      -3.717 -13.044 -57.579  0.00  0.00     0.053 A 
BRANCH  21  25
ATOM     25  N2  non d   1      -5.129 -12.432 -61.445  0.00  0.00    -0.116 N 
ATOM     26  O6  non d   1      -6.294 -12.768 -61.692  0.00  0.00    -0.532 OA
ATOM     27  O7  non d   1      -4.355 -11.930 -62.271  0.00  0.00    -0.532 OA
ENDBRANCH  21  25
BRANCH  23  28
ATOM     28  N1  non d   1      -5.716 -12.031 -56.635  0.00  0.00    -0.116 N 
ATOM     29  O4  non d   1      -6.635 -12.775 -56.268  0.00  0.00    -0.532 OA
ATOM     30  O5  non d   1      -5.430 -10.953 -56.095  0.00  0.00    -0.532 OA
ENDBRANCH  23  28
ENDBRANCH  17  19
ENDBRANCH  16  17
ENDBRANCH   2  16
BRANCH   1  31
ATOM     31  O1  non d   1      -0.936 -10.509 -58.621  0.00  0.00    -0.351 OA
ATOM     32  C1  non d   1       0.002 -10.054 -59.600  0.00  0.00     0.210 C 
ENDBRANCH   1  31
BRANCH  15  33
ATOM     33  O14 non d   1      -0.098  -9.061 -56.452  0.00  0.00    -0.271 OA
BRANCH  33  34
ATOM     34  C22 non d   1      -1.265  -8.704 -55.841  0.00  0.00     0.298 C 
ATOM     35  O15 non d   1      -2.189  -9.437 -55.517  0.00  0.00    -0.259 OA
BRANCH  34  36
ATOM     36  C23 non d   1      -1.286  -7.223 -55.630  0.00  0.00     0.044 A 
ATOM     37  C26 non d   1      -1.325  -6.766 -54.355  0.00  0.00     0.053 A 
ATOM     38  C25 non d   1      -1.336  -5.434 -54.131  0.00  0.00     0.106 A 
ATOM     39  C24 non d   1      -1.297  -4.541 -55.144  0.00  0.00     0.072 A 
ATOM     40  C28 non d   1      -1.249  -5.025 -56.403  0.00  0.00     0.106 A 
ATOM     41  C27 non d   1      -1.251  -6.349 -56.665  0.00  0.00     0.053 A 
BRANCH  38  42
ATOM     42  N4  non d   1      -1.383  -4.942 -52.748  0.00  0.00    -0.116 N 
ATOM     43  O18 non d   1      -0.316  -4.590 -52.226  0.00  0.00    -0.532 OA
ATOM     44  O19 non d   1      -2.484  -4.908 -52.183  0.00  0.00    -0.532 OA
ENDBRANCH  38  42
BRANCH  40  45
ATOM     45  N3  non d   1      -1.172  -4.082 -57.521  0.00  0.00    -0.116 N 
ATOM     46  O16 non d   1      -2.233  -3.761 -58.078  0.00  0.00    -0.532 OA
ATOM     47  O17 non d   1      -0.051  -3.674 -57.851  0.00  0.00    -0.532 OA
ENDBRANCH  40  45
ENDBRANCH  34  36
ENDBRANCH  33  34
ENDBRANCH  15  33
BRANCH  11  48
ATOM     48  C18 non d   1       2.140  -6.852 -53.460  0.00  0.00     0.198 C 
BRANCH  48  49
ATOM     49  O12 non d   1       2.264  -6.118 -52.243  0.00  0.00    -0.398 OA
ATOM     50  H16 non d   1       1.419  -6.217 -51.759  0.00  0.00     0.209 HD
ENDBRANCH  48  49
ENDBRANCH  11  48
BRANCH   9  51
ATOM     51  O10 non d   1       4.516 -11.033 -52.338  0.00  0.00    -0.390 OA
ATOM     52  H10 non d   1       4.432 -11.572 -51.528  0.00  0.00     0.210 HD
ENDBRANCH   9  51
BRANCH  10  53
ATOM     53  O11 non d   1       3.804  -8.410 -51.524  0.00  0.00    -0.390 OA
ATOM     54  H12 non d   1       3.860  -7.444 -51.680  0.00  0.00     0.210 HD
ENDBRANCH  10  53
TORSDOF 15
ENDMDL
MODEL 7
REMARK VINA RESULT:    -7.118      2.575      5.325
REMARK INTER + INTRA:         -14.847
REMARK INTER:                 -11.864
REMARK INTRA:                  -2.984
REMARK UNBOUND:                -2.112
REMARK  15 active torsions:
REMARK  status: ('A' for Active; 'I' for Inactive)
REMARK    1  A    between atoms: O1_2  and  C2_3 
REMARK    2  A    between atoms: C3_4  and  O2_5 
REMARK    3  A    between atoms: O2_5  and  C4_6 
REMARK    4  A    between atoms: C4_6  and  C5_8 
REMARK    5  A    between atoms: C7_10  and  N2_17 
REMARK    6  A    between atoms: C9_12  and  N1_14 
REMARK    7  A    between atoms: C15_26  and  O10_27 
REMARK    8  A    between atoms: C16_28  and  O11_29 
REMARK    9  A    between atoms: C17_30  and  C18_31 
REMARK   10  A    between atoms: C18_31  and  O12_32 
REMARK   11  A    between atoms: C21_36  and  O14_37 
REMARK   12  A    between atoms: O14_37  and  C22_38 
REMARK   13  A    between atoms: C22_38  and  C23_39 
REMARK   14  A    between atoms: C25_42  and  N4_49 
REMARK   15  A    between atoms: N3_46  and  C28_45 
ROOT
ATOM      1  C2  non d   1      -0.201 -11.013 -57.515  0.00  0.00     0.137 A 
ATOM      2  C3  non d   1      -0.041 -12.357 -57.518  0.00  0.00     0.116 A 
ATOM      3  C11 non d   1       0.526 -12.967 -56.460  0.00  0.00     0.058 A 
ATOM      4  C12 non d   1       0.942 -12.244 -55.400  0.00  0.00     0.054 A 
ATOM      5  C13 non d   1       1.584 -12.996 -54.278  0.00  0.00     0.294 C 
ATOM      6  O8  non d   1       1.453 -14.205 -54.133  0.00  0.00    -0.259 OA
ATOM      7  O9  non d   1       2.333 -12.263 -53.411  0.00  0.00    -0.306 OA
ATOM      8  C14 non d   1       2.565 -10.870 -53.703  0.00  0.00     0.197 C 
ATOM      9  C15 non d   1       3.136 -10.217 -52.449  0.00  0.00     0.181 C 
ATOM     10  C16 non d   1       3.283  -8.707 -52.648  0.00  0.00     0.180 C 
ATOM     11  C17 non d   1       1.950  -8.113 -53.120  0.00  0.00     0.177 C 
ATOM     12  O13 non d   1       1.460  -8.787 -54.298  0.00  0.00    -0.368 OA
ATOM     13  C19 non d   1       1.256 -10.185 -54.103  0.00  0.00     0.191 C 
ATOM     14  C20 non d   1       0.761 -10.898 -55.355  0.00  0.00     0.026 A 
ATOM     15  C21 non d   1       0.173 -10.292 -56.425  0.00  0.00     0.125 A 
ENDROOT
BRANCH   2  16
ATOM     16  O2  non d   1      -0.500 -13.128 -58.608  0.00  0.00    -0.272 OA
BRANCH  16  17
ATOM     17  C4  non d   1      -1.512 -13.987 -58.287  0.00  0.00     0.298 C 
ATOM     18  O3  non d   1      -1.403 -15.128 -57.859  0.00  0.00    -0.259 OA
BRANCH  17  19
ATOM     19  C5  non d   1      -2.835 -13.319 -58.501  0.00  0.00     0.044 A 
ATOM     20  C6  non d   1      -3.637 -12.956 -57.472  0.00  0.00     0.053 A 
ATOM     21  C7  non d   1      -4.815 -12.349 -57.738  0.00  0.00     0.106 A 
ATOM     22  C8  non d   1      -5.216 -12.092 -59.002  0.00  0.00     0.072 A 
ATOM     23  C9  non d   1      -4.397 -12.462 -60.010  0.00  0.00     0.106 A 
ATOM     24  C10 non d   1      -3.212 -13.068 -59.778  0.00  0.00     0.053 A 
BRANCH  21  25
ATOM     25  N2  non d   1      -5.681 -11.951 -56.620  0.00  0.00    -0.116 N 
ATOM     26  O6  non d   1      -6.603 -12.715 -56.305  0.00  0.00    -0.532 OA
ATOM     27  O7  non d   1      -5.439 -10.875 -56.056  0.00  0.00    -0.532 OA
ENDBRANCH  21  25
BRANCH  23  28
ATOM     28  N1  non d   1      -4.804 -12.197 -61.396  0.00  0.00    -0.116 N 
ATOM     29  O4  non d   1      -6.011 -12.270 -61.667  0.00  0.00    -0.532 OA
ATOM     30  O5  non d   1      -3.919 -11.917 -62.216  0.00  0.00    -0.532 OA
ENDBRANCH  23  28
ENDBRANCH  17  19
ENDBRANCH  16  17
ENDBRANCH   2  16
BRANCH   1  31
ATOM     31  O1  non d   1      -0.807 -10.397 -58.609  0.00  0.00    -0.351 OA
ATOM     32  C1  non d   1       0.163  -9.972 -59.570  0.00  0.00     0.210 C 
ENDBRANCH   1  31
BRANCH  15  33
ATOM     33  O14 non d   1      -0.046  -8.897 -56.447  0.00  0.00    -0.271 OA
BRANCH  33  34
ATOM     34  C22 non d   1      -1.229  -8.527 -55.876  0.00  0.00     0.298 C 
ATOM     35  O15 non d   1      -2.178  -9.247 -55.600  0.00  0.00    -0.259 OA
BRANCH  34  36
ATOM     36  C23 non d   1      -1.231  -7.049 -55.644  0.00  0.00     0.044 A 
ATOM     37  C26 non d   1      -1.421  -6.608 -54.377  0.00  0.00     0.053 A 
ATOM     38  C25 non d   1      -1.419  -5.280 -54.133  0.00  0.00     0.106 A 
ATOM     39  C24 non d   1      -1.222  -4.375 -55.116  0.00  0.00     0.072 A 
ATOM     40  C28 non d   1      -1.027  -4.843 -56.367  0.00  0.00     0.106 A 
ATOM     41  C27 non d   1      -1.035  -6.163 -56.650  0.00  0.00     0.053 A 
BRANCH  38  42
ATOM     42  N4  non d   1      -1.630  -4.805 -52.759  0.00  0.00    -0.116 N 
ATOM     43  O18 non d   1      -2.799  -4.668 -52.370  0.00  0.00    -0.532 OA
ATOM     44  O19 non d   1      -0.630  -4.568 -52.069  0.00  0.00    -0.532 OA
ENDBRANCH  38  42
BRANCH  40  45
ATOM     45  N3  non d   1      -0.776  -3.888 -57.449  0.00  0.00    -0.116 N 
ATOM     46  O16 non d   1      -0.680  -4.336 -58.602  0.00  0.00    -0.532 OA
ATOM     47  O17 non d   1      -0.661  -2.694 -57.145  0.00  0.00    -0.532 OA
ENDBRANCH  40  45
ENDBRANCH  34  36
ENDBRANCH  33  34
ENDBRANCH  15  33
BRANCH  11  48
ATOM     48  C18 non d   1       2.086  -6.615 -53.432  0.00  0.00     0.198 C 
BRANCH  48  49
ATOM     49  O12 non d   1       2.078  -5.845 -52.231  0.00  0.00    -0.398 OA
ATOM     50  H16 non d   1       2.258  -6.460 -51.492  0.00  0.00     0.209 HD
ENDBRANCH  48  49
ENDBRANCH  11  48
BRANCH   9  51
ATOM     51  O10 non d   1       4.426 -10.765 -52.131  0.00  0.00    -0.390 OA
ATOM     52  H10 non d   1       4.539 -10.672 -51.165  0.00  0.00     0.210 HD
ENDBRANCH   9  51
BRANCH  10  53
ATOM     53  O11 non d   1       3.683  -8.124 -51.403  0.00  0.00    -0.390 OA
ATOM     54  H12 non d   1       4.251  -7.364 -51.648  0.00  0.00     0.210 HD
ENDBRANCH  10  53
TORSDOF 15
ENDMDL
MODEL 8
REMARK VINA RESULT:    -7.087      2.559      5.718
REMARK INTER + INTRA:         -14.792
REMARK INTER:                 -11.995
REMARK INTRA:                  -2.797
REMARK UNBOUND:                -2.112
REMARK  15 active torsions:
REMARK  status: ('A' for Active; 'I' for Inactive)
REMARK    1  A    between atoms: O1_2  and  C2_3 
REMARK    2  A    between atoms: C3_4  and  O2_5 
REMARK    3  A    between atoms: O2_5  and  C4_6 
REMARK    4  A    between atoms: C4_6  and  C5_8 
REMARK    5  A    between atoms: C7_10  and  N2_17 
REMARK    6  A    between atoms: C9_12  and  N1_14 
REMARK    7  A    between atoms: C15_26  and  O10_27 
REMARK    8  A    between atoms: C16_28  and  O11_29 
REMARK    9  A    between atoms: C17_30  and  C18_31 
REMARK   10  A    between atoms: C18_31  and  O12_32 
REMARK   11  A    between atoms: C21_36  and  O14_37 
REMARK   12  A    between atoms: O14_37  and  C22_38 
REMARK   13  A    between atoms: C22_38  and  C23_39 
REMARK   14  A    between atoms: C25_42  and  N4_49 
REMARK   15  A    between atoms: N3_46  and  C28_45 
ROOT
ATOM      1  C2  non d   1      -0.369 -11.058 -57.652  0.00  0.00     0.137 A 
ATOM      2  C3  non d   1      -0.223 -12.403 -57.686  0.00  0.00     0.116 A 
ATOM      3  C11 non d   1       0.361 -13.041 -56.654  0.00  0.00     0.058 A 
ATOM      4  C12 non d   1       0.807 -12.345 -55.589  0.00  0.00     0.054 A 
ATOM      5  C13 non d   1       1.465 -13.126 -54.497  0.00  0.00     0.294 C 
ATOM      6  O8  non d   1       1.325 -14.336 -54.374  0.00  0.00    -0.259 OA
ATOM      7  O9  non d   1       2.242 -12.419 -53.632  0.00  0.00    -0.306 OA
ATOM      8  C14 non d   1       2.482 -11.023 -53.901  0.00  0.00     0.197 C 
ATOM      9  C15 non d   1       3.089 -10.402 -52.646  0.00  0.00     0.181 C 
ATOM     10  C16 non d   1       3.247  -8.890 -52.818  0.00  0.00     0.180 C 
ATOM     11  C17 non d   1       1.911  -8.272 -53.248  0.00  0.00     0.177 C 
ATOM     12  O13 non d   1       1.387  -8.916 -54.428  0.00  0.00    -0.368 OA
ATOM     13  C19 non d   1       1.173 -10.315 -54.257  0.00  0.00     0.191 C 
ATOM     14  C20 non d   1       0.642 -10.998 -55.512  0.00  0.00     0.026 A 
ATOM     15  C21 non d   1       0.037 -10.363 -56.556  0.00  0.00     0.125 A 
ENDROOT
BRANCH   2  16
ATOM     16  O2  non d   1      -0.715 -13.147 -58.781  0.00  0.00    -0.272 OA
BRANCH  16  17
ATOM     17  C4  non d   1      -1.705 -14.027 -58.449  0.00  0.00     0.298 C 
ATOM     18  O3  non d   1      -1.567 -15.151 -57.986  0.00  0.00    -0.259 OA
BRANCH  17  19
ATOM     19  C5  non d   1      -3.044 -13.407 -58.702  0.00  0.00     0.044 A 
ATOM     20  C6  non d   1      -3.551 -13.263 -59.950  0.00  0.00     0.053 A 
ATOM     21  C7  non d   1      -4.770 -12.702 -60.104  0.00  0.00     0.106 A 
ATOM     22  C8  non d   1      -5.501 -12.281 -59.049  0.00  0.00     0.072 A 
ATOM     23  C9  non d   1      -4.974 -12.439 -57.816  0.00  0.00     0.106 A 
ATOM     24  C10 non d   1      -3.759 -12.997 -57.627  0.00  0.00     0.053 A 
BRANCH  21  25
ATOM     25  N2  non d   1      -5.320 -12.552 -61.459  0.00  0.00    -0.116 N 
ATOM     26  O6  non d   1      -4.737 -11.785 -62.236  0.00  0.00    -0.532 OA
ATOM     27  O7  non d   1      -6.334 -13.202 -61.746  0.00  0.00    -0.532 OA
ENDBRANCH  21  25
BRANCH  23  28
ATOM     28  N1  non d   1      -5.744 -11.991 -56.648  0.00  0.00    -0.116 N 
ATOM     29  O4  non d   1      -5.434 -10.908 -56.132  0.00  0.00    -0.532 OA
ATOM     30  O5  non d   1      -6.659 -12.722 -56.243  0.00  0.00    -0.532 OA
ENDBRANCH  23  28
ENDBRANCH  17  19
ENDBRANCH  16  17
ENDBRANCH   2  16
BRANCH   1  31
ATOM     31  O1  non d   1      -0.991 -10.413 -58.720  0.00  0.00    -0.351 OA
ATOM     32  C1  non d   1      -0.037  -9.965 -59.686  0.00  0.00     0.210 C 
ENDBRANCH   1  31
BRANCH  15  33
ATOM     33  O14 non d   1      -0.167  -8.966 -56.544  0.00  0.00    -0.271 OA
BRANCH  33  34
ATOM     34  C22 non d   1      -1.314  -8.593 -55.907  0.00  0.00     0.298 C 
ATOM     35  O15 non d   1      -2.276  -9.299 -55.634  0.00  0.00    -0.259 OA
BRANCH  34  36
ATOM     36  C23 non d   1      -1.259  -7.131 -55.592  0.00  0.00     0.044 A 
ATOM     37  C26 non d   1      -1.053  -6.271 -56.618  0.00  0.00     0.053 A 
ATOM     38  C25 non d   1      -1.007  -4.945 -56.368  0.00  0.00     0.106 A 
ATOM     39  C24 non d   1      -1.173  -4.448 -55.123  0.00  0.00     0.072 A 
ATOM     40  C28 non d   1      -1.385  -5.328 -54.122  0.00  0.00     0.106 A 
ATOM     41  C27 non d   1      -1.424  -6.661 -54.332  0.00  0.00     0.053 A 
BRANCH  38  42
ATOM     42  N4  non d   1      -0.778  -4.015 -57.482  0.00  0.00    -0.116 N 
ATOM     43  O18 non d   1      -0.809  -2.801 -57.233  0.00  0.00    -0.532 OA
ATOM     44  O19 non d   1      -0.569  -4.495 -58.604  0.00  0.00    -0.532 OA
ENDBRANCH  38  42
BRANCH  40  45
ATOM     45  N3  non d   1      -1.602  -4.819 -52.766  0.00  0.00    -0.116 N 
ATOM     46  O16 non d   1      -2.773  -4.613 -52.408  0.00  0.00    -0.532 OA
ATOM     47  O17 non d   1      -0.604  -4.610 -52.065  0.00  0.00    -0.532 OA
ENDBRANCH  40  45
ENDBRANCH  34  36
ENDBRANCH  33  34
ENDBRANCH  15  33
BRANCH  11  48
ATOM     48  C18 non d   1       2.056  -6.770 -53.532  0.00  0.00     0.198 C 
BRANCH  48  49
ATOM     49  O12 non d   1       2.152  -6.031 -52.315  0.00  0.00    -0.398 OA
ATOM     50  H16 non d   1       1.709  -6.559 -51.621  0.00  0.00     0.209 HD
ENDBRANCH  48  49
ENDBRANCH  11  48
BRANCH   9  51
ATOM     51  O10 non d   1       4.379 -10.970 -52.369  0.00  0.00    -0.390 OA
ATOM     52  H10 non d   1       4.294 -11.934 -52.505  0.00  0.00     0.210 HD
ENDBRANCH   9  51
BRANCH  10  53
ATOM     53  O11 non d   1       3.681  -8.337 -51.571  0.00  0.00    -0.390 OA
ATOM     54  H12 non d   1       3.860  -9.111 -50.997  0.00  0.00     0.210 HD
ENDBRANCH  10  53
TORSDOF 15
ENDMDL
MODEL 9
REMARK VINA RESULT:    -7.008      2.605      5.412
REMARK INTER + INTRA:         -14.650
REMARK INTER:                 -11.816
REMARK INTRA:                  -2.834
REMARK UNBOUND:                -2.112
REMARK  15 active torsions:
REMARK  status: ('A' for Active; 'I' for Inactive)
REMARK    1  A    between atoms: O1_2  and  C2_3 
REMARK    2  A    between atoms: C3_4  and  O2_5 
REMARK    3  A    between atoms: O2_5  and  C4_6 
REMARK    4  A    between atoms: C4_6  and  C5_8 
REMARK    5  A    between atoms: C7_10  and  N2_17 
REMARK    6  A    between atoms: C9_12  and  N1_14 
REMARK    7  A    between atoms: C15_26  and  O10_27 
REMARK    8  A    between atoms: C16_28  and  O11_29 
REMARK    9  A    between atoms: C17_30  and  C18_31 
REMARK   10  A    between atoms: C18_31  and  O12_32 
REMARK   11  A    between atoms: C21_36  and  O14_37 
REMARK   12  A    between atoms: O14_37  and  C22_38 
REMARK   13  A    between atoms: C22_38  and  C23_39 
REMARK   14  A    between atoms: C25_42  and  N4_49 
REMARK   15  A    between atoms: N3_46  and  C28_45 
ROOT
ATOM      1  C2  non d   1      -0.330 -11.066 -57.588  0.00  0.00     0.137 A 
ATOM      2  C3  non d   1      -0.178 -12.410 -57.625  0.00  0.00     0.116 A 
ATOM      3  C11 non d   1       0.417 -13.047 -56.598  0.00  0.00     0.058 A 
ATOM      4  C12 non d   1       0.868 -12.350 -55.536  0.00  0.00     0.054 A 
ATOM      5  C13 non d   1       1.538 -13.130 -54.450  0.00  0.00     0.294 C 
ATOM      6  O8  non d   1       1.404 -14.340 -54.328  0.00  0.00    -0.259 OA
ATOM      7  O9  non d   1       2.318 -12.420 -53.591  0.00  0.00    -0.306 OA
ATOM      8  C14 non d   1       2.550 -11.023 -53.859  0.00  0.00     0.197 C 
ATOM      9  C15 non d   1       3.163 -10.401 -52.608  0.00  0.00     0.181 C 
ATOM     10  C16 non d   1       3.314  -8.887 -52.779  0.00  0.00     0.180 C 
ATOM     11  C17 non d   1       1.971  -8.275 -53.198  0.00  0.00     0.177 C 
ATOM     12  O13 non d   1       1.442  -8.921 -54.374  0.00  0.00    -0.368 OA
ATOM     13  C19 non d   1       1.235 -10.321 -54.204  0.00  0.00     0.191 C 
ATOM     14  C20 non d   1       0.697 -11.004 -55.456  0.00  0.00     0.026 A 
ATOM     15  C21 non d   1       0.082 -10.370 -56.494  0.00  0.00     0.125 A 
ENDROOT
BRANCH   2  16
ATOM     16  O2  non d   1      -0.675 -13.154 -58.717  0.00  0.00    -0.272 OA
BRANCH  16  17
ATOM     17  C4  non d   1      -1.613 -14.084 -58.369  0.00  0.00     0.298 C 
ATOM     18  O3  non d   1      -1.410 -15.210 -57.937  0.00  0.00    -0.259 OA
BRANCH  17  19
ATOM     19  C5  non d   1      -2.987 -13.517 -58.559  0.00  0.00     0.044 A 
ATOM     20  C6  non d   1      -3.740 -13.084 -57.520  0.00  0.00     0.053 A 
ATOM     21  C7  non d   1      -4.968 -12.576 -57.765  0.00  0.00     0.106 A 
ATOM     22  C8  non d   1      -5.467 -12.487 -59.017  0.00  0.00     0.072 A 
ATOM     23  C9  non d   1      -4.694 -12.924 -60.035  0.00  0.00     0.106 A 
ATOM     24  C10 non d   1      -3.462 -13.434 -59.825  0.00  0.00     0.053 A 
BRANCH  21  25
ATOM     25  N2  non d   1      -5.782 -12.101 -56.638  0.00  0.00    -0.116 N 
ATOM     26  O6  non d   1      -6.733 -12.806 -56.277  0.00  0.00    -0.532 OA
ATOM     27  O7  non d   1      -5.468 -11.025 -56.111  0.00  0.00    -0.532 OA
ENDBRANCH  21  25
BRANCH  23  28
ATOM     28  N1  non d   1      -5.208 -12.841 -61.409  0.00  0.00    -0.116 N 
ATOM     29  O4  non d   1      -5.541 -13.895 -61.966  0.00  0.00    -0.532 OA
ATOM     30  O5  non d   1      -5.279 -11.720 -61.933  0.00  0.00    -0.532 OA
ENDBRANCH  23  28
ENDBRANCH  17  19
ENDBRANCH  16  17
ENDBRANCH   2  16
BRANCH   1  31
ATOM     31  O1  non d   1      -0.964 -10.422 -58.650  0.00  0.00    -0.351 OA
ATOM     32  C1  non d   1      -0.019  -9.973 -59.625  0.00  0.00     0.210 C 
ENDBRANCH   1  31
BRANCH  15  33
ATOM     33  O14 non d   1      -0.129  -8.975 -56.479  0.00  0.00    -0.271 OA
BRANCH  33  34
ATOM     34  C22 non d   1      -1.294  -8.611 -55.869  0.00  0.00     0.298 C 
ATOM     35  O15 non d   1      -2.249  -9.327 -55.603  0.00  0.00    -0.259 OA
BRANCH  34  36
ATOM     36  C23 non d   1      -1.268  -7.143 -55.576  0.00  0.00     0.044 A 
ATOM     37  C26 non d   1      -1.141  -6.292 -56.622  0.00  0.00     0.053 A 
ATOM     38  C25 non d   1      -1.123  -4.961 -56.391  0.00  0.00     0.106 A 
ATOM     39  C24 non d   1      -1.240  -4.453 -55.146  0.00  0.00     0.072 A 
ATOM     40  C28 non d   1      -1.374  -5.324 -54.124  0.00  0.00     0.106 A 
ATOM     41  C27 non d   1      -1.383  -6.661 -54.315  0.00  0.00     0.053 A 
BRANCH  38  42
ATOM     42  N4  non d   1      -0.981  -4.041 -57.527  0.00  0.00    -0.116 N 
ATOM     43  O18 non d   1       0.162  -3.672 -57.830  0.00  0.00    -0.532 OA
ATOM     44  O19 non d   1      -2.011  -3.685 -58.116  0.00  0.00    -0.532 OA
ENDBRANCH  38  42
BRANCH  40  45
ATOM     45  N3  non d   1      -1.537  -4.802 -52.765  0.00  0.00    -0.116 N 
ATOM     46  O16 non d   1      -2.687  -4.751 -52.302  0.00  0.00    -0.532 OA
ATOM     47  O17 non d   1      -0.519  -4.430 -52.168  0.00  0.00    -0.532 OA
ENDBRANCH  40  45
ENDBRANCH  34  36
ENDBRANCH  33  34
ENDBRANCH  15  33
BRANCH  11  48
ATOM     48  C18 non d   1       2.108  -6.772 -53.480  0.00  0.00     0.198 C 
BRANCH  48  49
ATOM     49  O12 non d   1       1.965  -6.015 -52.280  0.00  0.00    -0.398 OA
ATOM     50  H16 non d   1       1.158  -6.338 -51.829  0.00  0.00     0.209 HD
ENDBRANCH  48  49
ENDBRANCH  11  48
BRANCH   9  51
ATOM     51  O10 non d   1       4.458 -10.963 -52.342  0.00  0.00    -0.390 OA
ATOM     52  H10 non d   1       4.617 -10.857 -51.384  0.00  0.00     0.210 HD
ENDBRANCH   9  51
BRANCH  10  53
ATOM     53  O11 non d   1       3.754  -8.335 -51.534  0.00  0.00    -0.390 OA
ATOM     54  H12 non d   1       3.611  -7.369 -51.619  0.00  0.00     0.210 HD
ENDBRANCH  10  53
TORSDOF 15
ENDMDL
