@<TRIPOS>MOLECULE
result_docking2_blind_rigid_5svr_P2X3_Zenarestat_meeko
 27 29 0 0 0
SMALL
GASTEIGER

@<TRIPOS>ATOM
      1  Cl        23.8210  -12.4710  -26.1420 Cl      1  UNL1       -0.0822
      2  O         16.8990  -11.5970  -23.4030 O.2     1  UNL1       -0.2462
      3  O         19.9800   -8.1650  -22.8290 O.2     1  UNL1       -0.2668
      4  N         18.4060   -9.8570  -23.1260 N.ar    1  UNL1       -0.2444
      5  N         19.0360  -11.8650  -24.2520 N.ar    1  UNL1       -0.2703
      6  C         20.3490  -11.3460  -24.4530 C.ar    1  UNL1        0.0698
      7  C         20.6790  -10.0770  -23.9720 C.ar    1  UNL1        0.0722
      8  C         18.0330  -11.1400  -23.5830 C.ar    1  UNL1        0.3345
      9  C         19.6730   -9.2730  -23.2620 C.ar    1  UNL1        0.2658
     10  C         21.3440  -12.0760  -25.1270 C.2     1  UNL1        0.0289
     11  C         21.9650   -9.5490  -24.1570 C.2     1  UNL1        0.0071
     12  C         22.6250  -11.5520  -25.3120 C.2     1  UNL1        0.0591
     13  C         22.9370  -10.2880  -24.8270 C.2     1  UNL1        0.0116
     14  C         17.4030   -9.0550  -22.4280 C.3     1  UNL1        0.1425
     15  C         16.7410   -8.0650  -23.3420 C.2     1  UNL1        0.0281
     16  Br        14.6780   -4.9930  -26.1910 Br      1  UNL1       -0.0489
     17  C         15.5120   -6.2370  -25.0370 C.2     1  UNL1        0.0368
     18  C         16.2860   -5.7850  -23.9680 C.2     1  UNL1        0.0361
     19  C         15.3560   -7.6050  -25.2560 C.2     1  UNL1        0.0066
     20  C         16.9030   -6.7020  -23.1170 C.2     1  UNL1        0.1384
     21  C         15.9720   -8.5220  -24.4050 C.2     1  UNL1        0.0003
     22  F         17.6440   -6.2600  -22.0920 F       1  UNL1       -0.2044
     23  C         18.7210  -13.2000  -24.7600 C.3     1  UNL1        0.2198
     24  C         19.0660  -14.2950  -23.7840 C.2     1  UNL1        0.3373
     25  O         19.6390  -14.0890  -22.7210 O.2     1  UNL1       -0.2481
     26  O         18.6860  -15.5270  -24.1950 O.3     1  UNL1       -0.4788
     27 H          18.2500  -15.6327  -25.0176 H       1  UNL1        0.2951
@<TRIPOS>BOND
     1    16    17    1
     2     1    12    1
     3    12    10    1
     4    12    13    2
     5    19    17    2
     6    19    21    1
     7    10     6    2
     8    17    18    1
     9    13    11    1
    10    23     5    1
    11    23    24    1
    12     6     5   ar
    13     6     7   ar
    14    21    15    2
    15     5     8   ar
    16    26    24    1
    17    11     7    2
    18     7     9   ar
    19    18    20    2
    20    24    25    2
    21     8     2    2
    22     8     4   ar
    23    15    20    1
    24    15    14    1
    25     9     4   ar
    26     9     3    2
    27     4    14    1
    28    20    22    1
    29    26    27    1
