@<TRIPOS>MOLECULE
result_docking2_blind_rigid_5svr_P2X3_bergenin_dft_6_311G
 28 30 0 0 0
SMALL
GASTEIGER

@<TRIPOS>ATOM
      1  O1        18.2530  -11.1570  -23.7690 O.3     1  RES1       -0.3453
      2  O2        14.9610  -10.6170  -25.2660 O.3     1  RES1       -0.4437
      3  O7        13.7470   -8.7850  -25.5050 O.2     1  RES1       -0.2449
      4  C10       16.2950  -11.1270  -25.1300 C.3     1  RES1        0.2293
      5  C11       16.9320  -10.6440  -23.8280 C.3     1  RES1        0.1831
      6  C12       16.2560  -12.6440  -25.1700 C.3     1  RES1        0.1826
      7  C13       17.6520  -13.2180  -24.8750 C.3     1  RES1        0.1704
      8  C14       18.2800  -12.5800  -23.6330 C.3     1  RES1        0.1740
      9  C15       16.9170   -9.1390  -23.8080 C.2     1  RES1        0.0514
     10  C17       15.8860   -8.4880  -24.5040 C.2     1  RES1        0.0802
     11  C18       14.7840   -9.2730  -25.1480 C.2     1  RES1        0.3412
     12  C19       17.8250   -8.3540  -23.0940 C.2     1  RES1        0.1693
     13  C20       15.7690   -7.1010  -24.5270 C.2     1  RES1        0.0462
     14  C21       17.7440   -6.9610  -23.1700 C.2     1  RES1        0.2053
     15  C22       16.7100   -6.3310  -23.8600 C.2     1  RES1        0.1710
     16  C16       19.7400  -12.9370  -23.4110 C.3     1  RES1        0.1692
     17  O5        19.8800  -14.3050  -23.0640 O.3     1  RES1       -0.3794
     18  O4        17.5910  -14.6430  -24.7980 O.3     1  RES1       -0.3794
     19  O3        15.8000  -13.0660  -26.4410 O.3     1  RES1       -0.3785
     20  O6        18.7890   -8.9120  -22.3060 O.2     1  RES1       -0.5029
     21  O8        18.6620   -6.1990  -22.4670 O.2     1  RES1       -0.4654
     22  C23       19.8370   -5.8420  -23.2340 C.3     1  RES1        0.2528
     23  O9        16.6110   -4.9750  -23.8720 O.2     1  RES1       -0.5028
     24 H          20.8183  -14.5095  -22.9274 H       1  RES1        0.2105
     25 H          17.1864  -14.9935  -25.6069 H       1  RES1        0.2105
     26 H          14.9198  -12.6944  -26.6085 H       1  RES1        0.2106
     27 H          18.8599   -9.8441  -22.2416 H       1  RES1        0.2923
     28 H          15.9123   -4.5604  -24.3387 H       1  RES1        0.2923
@<TRIPOS>BOND
     1    19     6    1
     2     3    11    2
     3     2    11    1
     4     2     4    1
     5     6     4    1
     6     6     7    1
     7    11    10    1
     8     4     5    1
     9     7    18    1
    10     7     8    1
    11    13    10    1
    12    13    15    2
    13    10     9    2
    14    23    15    1
    15    15    14    1
    16     5     9    1
    17     5     1    1
    18     9    12    1
    19     1     8    1
    20     8    16    1
    21    16    17    1
    22    22    21    1
    23    14    12    2
    24    14    21    1
    25    12    20    1
    26    17    24    1
    27    18    25    1
    28    19    26    1
    29    20    27    1
    30    23    28    1
