MODEL 1
REMARK VINA RESULT:    -6.747      0.000      0.000
REMARK INTER + INTRA:          -8.836
REMARK INTER:                  -8.523
REMARK INTRA:                  -0.314
REMARK UNBOUND:                -0.314
REMARK  7 active torsions:
REMARK  status: ('A' for Active; 'I' for Inactive)
REMARK    1  A    between atoms: O3_3  and  C12_12 
REMARK    2  A    between atoms: O4_4  and  C13_13 
REMARK    3  A    between atoms: O5_5  and  C16_16 
REMARK    4  A    between atoms: O6_6  and  C19_19 
REMARK    5  A    between atoms: O8_8  and  C21_21 
REMARK    6  A    between atoms: O9_9  and  C22_22 
REMARK    7  A    between atoms: C14_14  and  C16_16 
ROOT
ATOM      1  O1  RES d   1      18.253 -11.157 -23.769  0.00  0.00    -0.368 OA
ATOM      2  O2  RES d   1      14.961 -10.617 -25.266  0.00  0.00    -0.306 OA
ATOM      3  O7  RES d   1      13.747  -8.785 -25.505  0.00  0.00    -0.259 OA
ATOM      4  C10 RES d   1      16.295 -11.127 -25.130  0.00  0.00     0.197 C 
ATOM      5  C11 RES d   1      16.932 -10.644 -23.828  0.00  0.00     0.191 C 
ATOM      6  C12 RES d   1      16.256 -12.644 -25.170  0.00  0.00     0.181 C 
ATOM      7  C13 RES d   1      17.652 -13.218 -24.875  0.00  0.00     0.180 C 
ATOM      8  C14 RES d   1      18.280 -12.580 -23.633  0.00  0.00     0.177 C 
ATOM      9  C15 RES d   1      16.917  -9.139 -23.808  0.00  0.00     0.026 A 
ATOM     10  C17 RES d   1      15.886  -8.488 -24.504  0.00  0.00     0.054 A 
ATOM     11  C18 RES d   1      14.784  -9.273 -25.148  0.00  0.00     0.294 C 
ATOM     12  C19 RES d   1      17.825  -8.354 -23.094  0.00  0.00     0.111 A 
ATOM     13  C20 RES d   1      15.769  -7.101 -24.527  0.00  0.00     0.057 A 
ATOM     14  C21 RES d   1      17.744  -6.961 -23.170  0.00  0.00     0.135 A 
ATOM     15  C22 RES d   1      16.710  -6.331 -23.860  0.00  0.00     0.102 A 
ENDROOT
BRANCH   8  16
ATOM     16  C16 RES d   1      19.740 -12.937 -23.411  0.00  0.00     0.198 C 
BRANCH  16  17
ATOM     17  O5  RES d   1      19.880 -14.305 -23.064  0.00  0.00    -0.398 OA
ATOM     18  H34 RES d   1      20.586 -14.359 -22.404  0.00  0.00     0.209 HD
ENDBRANCH  16  17
ENDBRANCH   8  16
BRANCH   7  19
ATOM     19  O4  RES d   1      17.591 -14.643 -24.798  0.00  0.00    -0.390 OA
ATOM     20  H32 RES d   1      18.255 -15.019 -25.392  0.00  0.00     0.210 HD
ENDBRANCH   7  19
BRANCH   6  21
ATOM     21  O3  RES d   1      15.800 -13.066 -26.441  0.00  0.00    -0.390 OA
ATOM     22  H31 RES d   1      15.226 -13.831 -26.306  0.00  0.00     0.210 HD
ENDBRANCH   6  21
BRANCH  12  23
ATOM     23  O6  RES d   1      18.789  -8.912 -22.306  0.00  0.00    -0.357 OA
ATOM     24  H35 RES d   1      19.639  -8.738 -22.738  0.00  0.00     0.217 HD
ENDBRANCH  12  23
BRANCH  14  25
ATOM     25  O8  RES d   1      18.662  -6.199 -22.467  0.00  0.00    -0.351 OA
ATOM     26  C23 RES d   1      19.837  -5.842 -23.234  0.00  0.00     0.210 C 
ENDBRANCH  14  25
BRANCH  15  27
ATOM     27  O9  RES d   1      16.611  -4.975 -23.872  0.00  0.00    -0.358 OA
ATOM     28  H36 RES d   1      16.706  -4.657 -22.962  0.00  0.00     0.217 HD
ENDBRANCH  15  27
TORSDOF 7
ENDMDL
MODEL 2
REMARK VINA RESULT:    -6.549      1.977      2.318
REMARK INTER + INTRA:          -8.586
REMARK INTER:                  -8.255
REMARK INTRA:                  -0.331
REMARK UNBOUND:                -0.314
REMARK  7 active torsions:
REMARK  status: ('A' for Active; 'I' for Inactive)
REMARK    1  A    between atoms: O3_3  and  C12_12 
REMARK    2  A    between atoms: O4_4  and  C13_13 
REMARK    3  A    between atoms: O5_5  and  C16_16 
REMARK    4  A    between atoms: O6_6  and  C19_19 
REMARK    5  A    between atoms: O8_8  and  C21_21 
REMARK    6  A    between atoms: O9_9  and  C22_22 
REMARK    7  A    between atoms: C14_14  and  C16_16 
ROOT
ATOM      1  O1  RES d   1      19.726 -10.983 -24.653  0.00  0.00    -0.368 OA
ATOM      2  O2  RES d   1      16.459 -11.304 -23.044  0.00  0.00    -0.306 OA
ATOM      3  O7  RES d   1      15.241  -9.850 -21.907  0.00  0.00    -0.259 OA
ATOM      4  C10 RES d   1      17.465 -11.447 -24.057  0.00  0.00     0.197 C 
ATOM      5  C11 RES d   1      18.788 -10.833 -23.601  0.00  0.00     0.191 C 
ATOM      6  C12 RES d   1      17.646 -12.921 -24.375  0.00  0.00     0.181 C 
ATOM      7  C13 RES d   1      18.822 -13.113 -25.345  0.00  0.00     0.180 C 
ATOM      8  C14 RES d   1      20.069 -12.351 -24.888  0.00  0.00     0.177 C 
ATOM      9  C15 RES d   1      18.559  -9.385 -23.259  0.00  0.00     0.026 A 
ATOM     10  C17 RES d   1      17.285  -9.017 -22.798  0.00  0.00     0.054 A 
ATOM     11  C18 RES d   1      16.232 -10.055 -22.554  0.00  0.00     0.294 C 
ATOM     12  C19 RES d   1      19.548  -8.400 -23.314  0.00  0.00     0.111 A 
ATOM     13  C20 RES d   1      16.980  -7.709 -22.431  0.00  0.00     0.057 A 
ATOM     14  C21 RES d   1      19.223  -7.076 -23.007  0.00  0.00     0.135 A 
ATOM     15  C22 RES d   1      17.954  -6.730 -22.545  0.00  0.00     0.102 A 
ENDROOT
BRANCH   8  16
ATOM     16  C16 RES d   1      21.196 -12.316 -25.907  0.00  0.00     0.198 C 
BRANCH  16  17
ATOM     17  O5  RES d   1      20.755 -12.795 -27.167  0.00  0.00    -0.398 OA
ATOM     18  H34 RES d   1      21.544 -13.056 -27.663  0.00  0.00     0.209 HD
ENDBRANCH  16  17
ENDBRANCH   8  16
BRANCH   7  19
ATOM     19  O4  RES d   1      19.067 -14.504 -25.553  0.00  0.00    -0.390 OA
ATOM     20  H32 RES d   1      18.863 -14.726 -26.471  0.00  0.00     0.210 HD
ENDBRANCH   7  19
BRANCH   6  21
ATOM     21  O3  RES d   1      16.449 -13.428 -24.932  0.00  0.00    -0.390 OA
ATOM     22  H31 RES d   1      16.647 -13.721 -25.831  0.00  0.00     0.210 HD
ENDBRANCH   6  21
BRANCH  12  23
ATOM     23  O6  RES d   1      20.836  -8.697 -23.647  0.00  0.00    -0.357 OA
ATOM     24  H35 RES d   1      21.313  -8.850 -22.817  0.00  0.00     0.217 HD
ENDBRANCH  12  23
BRANCH  14  25
ATOM     25  O8  RES d   1      20.212  -6.110 -23.082  0.00  0.00    -0.351 OA
ATOM     26  C23 RES d   1      20.250  -5.407 -24.346  0.00  0.00     0.210 C 
ENDBRANCH  14  25
BRANCH  15  27
ATOM     27  O9  RES d   1      17.673  -5.447 -22.192  0.00  0.00    -0.358 OA
ATOM     28  H36 RES d   1      18.474  -5.055 -21.814  0.00  0.00     0.217 HD
ENDBRANCH  15  27
TORSDOF 7
ENDMDL
MODEL 3
REMARK VINA RESULT:    -6.128      2.179      6.635
REMARK INTER + INTRA:          -8.054
REMARK INTER:                  -7.735
REMARK INTRA:                  -0.319
REMARK UNBOUND:                -0.314
REMARK  7 active torsions:
REMARK  status: ('A' for Active; 'I' for Inactive)
REMARK    1  A    between atoms: O3_3  and  C12_12 
REMARK    2  A    between atoms: O4_4  and  C13_13 
REMARK    3  A    between atoms: O5_5  and  C16_16 
REMARK    4  A    between atoms: O6_6  and  C19_19 
REMARK    5  A    between atoms: O8_8  and  C21_21 
REMARK    6  A    between atoms: O9_9  and  C22_22 
REMARK    7  A    between atoms: C14_14  and  C16_16 
ROOT
ATOM      1  O1  RES d   1      15.614 -10.433 -24.891  0.00  0.00    -0.368 OA
ATOM      2  O2  RES d   1      18.436 -11.346 -22.753  0.00  0.00    -0.306 OA
ATOM      3  O7  RES d   1      20.127 -12.735 -23.078  0.00  0.00    -0.259 OA
ATOM      4  C10 RES d   1      17.475 -10.502 -23.403  0.00  0.00     0.197 C 
ATOM      5  C11 RES d   1      16.515 -11.327 -24.258  0.00  0.00     0.191 C 
ATOM      6  C12 RES d   1      16.709  -9.718 -22.351  0.00  0.00     0.181 C 
ATOM      7  C13 RES d   1      15.573  -8.920 -23.010  0.00  0.00     0.180 C 
ATOM      8  C14 RES d   1      14.742  -9.787 -23.960  0.00  0.00     0.177 C 
ATOM      9  C15 RES d   1      17.314 -12.117 -25.260  0.00  0.00     0.026 A 
ATOM     10  C17 RES d   1      18.619 -12.491 -24.904  0.00  0.00     0.054 A 
ATOM     11  C18 RES d   1      19.149 -12.205 -23.532  0.00  0.00     0.294 C 
ATOM     12  C19 RES d   1      16.819 -12.551 -26.492  0.00  0.00     0.111 A 
ATOM     13  C20 RES d   1      19.430 -13.244 -25.750  0.00  0.00     0.057 A 
ATOM     14  C21 RES d   1      17.655 -13.251 -27.366  0.00  0.00     0.135 A 
ATOM     15  C22 RES d   1      18.946 -13.620 -26.993  0.00  0.00     0.102 A 
ENDROOT
BRANCH   8  16
ATOM     16  C16 RES d   1      13.746  -9.015 -24.809  0.00  0.00     0.198 C 
BRANCH  16  17
ATOM     17  O5  RES d   1      14.139  -7.660 -24.946  0.00  0.00    -0.398 OA
ATOM     18  H34 RES d   1      13.389  -7.184 -25.331  0.00  0.00     0.209 HD
ENDBRANCH  16  17
ENDBRANCH   8  16
BRANCH   7  19
ATOM     19  O4  RES d   1      14.781  -8.276 -22.011  0.00  0.00    -0.390 OA
ATOM     20  H32 RES d   1      13.866  -8.225 -22.318  0.00  0.00     0.210 HD
ENDBRANCH   7  19
BRANCH   6  21
ATOM     21  O3  RES d   1      17.599  -8.855 -21.672  0.00  0.00    -0.390 OA
ATOM     22  H31 RES d   1      17.124  -8.478 -20.920  0.00  0.00     0.210 HD
ENDBRANCH   6  21
BRANCH  12  23
ATOM     23  O6  RES d   1      15.527 -12.321 -26.865  0.00  0.00    -0.357 OA
ATOM     24  H35 RES d   1      15.259 -13.069 -27.422  0.00  0.00     0.217 HD
ENDBRANCH  12  23
BRANCH  14  25
ATOM     25  O8  RES d   1      17.152 -13.660 -28.589  0.00  0.00    -0.351 OA
ATOM     26  C23 RES d   1      17.437 -12.747 -29.675  0.00  0.00     0.210 C 
ENDBRANCH  14  25
BRANCH  15  27
ATOM     27  O9  RES d   1      19.725 -14.355 -27.832  0.00  0.00    -0.358 OA
ATOM     28  H36 RES d   1      20.649 -14.231 -27.571  0.00  0.00     0.217 HD
ENDBRANCH  15  27
TORSDOF 7
ENDMDL
MODEL 4
REMARK VINA RESULT:    -5.946      2.913      4.004
REMARK INTER + INTRA:          -7.824
REMARK INTER:                  -7.497
REMARK INTRA:                  -0.327
REMARK UNBOUND:                -0.314
REMARK  7 active torsions:
REMARK  status: ('A' for Active; 'I' for Inactive)
REMARK    1  A    between atoms: O3_3  and  C12_12 
REMARK    2  A    between atoms: O4_4  and  C13_13 
REMARK    3  A    between atoms: O5_5  and  C16_16 
REMARK    4  A    between atoms: O6_6  and  C19_19 
REMARK    5  A    between atoms: O8_8  and  C21_21 
REMARK    6  A    between atoms: O9_9  and  C22_22 
REMARK    7  A    between atoms: C14_14  and  C16_16 
ROOT
ATOM      1  O1  RES d   1      21.834  -9.402 -24.507  0.00  0.00    -0.368 OA
ATOM      2  O2  RES d   1      18.905 -11.380 -23.569  0.00  0.00    -0.306 OA
ATOM      3  O7  RES d   1      16.967 -10.793 -22.682  0.00  0.00    -0.259 OA
ATOM      4  C10 RES d   1      20.010 -10.932 -24.367  0.00  0.00     0.197 C 
ATOM      5  C11 RES d   1      20.777  -9.817 -23.657  0.00  0.00     0.191 C 
ATOM      6  C12 RES d   1      20.928 -12.107 -24.652  0.00  0.00     0.181 C 
ATOM      7  C13 RES d   1      22.196 -11.625 -25.376  0.00  0.00     0.180 C 
ATOM      8  C14 RES d   1      22.826 -10.416 -24.679  0.00  0.00     0.177 C 
ATOM      9  C15 RES d   1      19.826  -8.689 -23.357  0.00  0.00     0.026 A 
ATOM     10  C17 RES d   1      18.475  -9.012 -23.151  0.00  0.00     0.054 A 
ATOM     11  C18 RES d   1      18.027 -10.441 -23.124  0.00  0.00     0.294 C 
ATOM     12  C19 RES d   1      20.212  -7.355 -23.211  0.00  0.00     0.111 A 
ATOM     13  C20 RES d   1      17.522  -8.045 -22.843  0.00  0.00     0.057 A 
ATOM     14  C21 RES d   1      19.244  -6.377 -22.966  0.00  0.00     0.135 A 
ATOM     15  C22 RES d   1      17.909  -6.716 -22.758  0.00  0.00     0.102 A 
ENDROOT
BRANCH   8  16
ATOM     16  C16 RES d   1      23.950  -9.754 -25.459  0.00  0.00     0.198 C 
BRANCH  16  17
ATOM     17  O5  RES d   1      23.859 -10.062 -26.840  0.00  0.00    -0.398 OA
ATOM     18  H34 RES d   1      23.375 -10.896 -26.913  0.00  0.00     0.209 HD
ENDBRANCH  16  17
ENDBRANCH   8  16
BRANCH   7  19
ATOM     19  O4  RES d   1      23.111 -12.710 -25.541  0.00  0.00    -0.390 OA
ATOM     20  H32 RES d   1      23.621 -12.819 -24.727  0.00  0.00     0.210 HD
ENDBRANCH   7  19
BRANCH   6  21
ATOM     21  O3  RES d   1      20.237 -13.060 -25.436  0.00  0.00    -0.390 OA
ATOM     22  H31 RES d   1      20.208 -12.728 -26.342  0.00  0.00     0.210 HD
ENDBRANCH   6  21
BRANCH  12  23
ATOM     23  O6  RES d   1      21.520  -6.975 -23.289  0.00  0.00    -0.357 OA
ATOM     24  H35 RES d   1      21.662  -6.315 -22.594  0.00  0.00     0.217 HD
ENDBRANCH  12  23
BRANCH  14  25
ATOM     25  O8  RES d   1      19.643  -5.057 -22.840  0.00  0.00    -0.351 OA
ATOM     26  C23 RES d   1      19.584  -4.307 -24.076  0.00  0.00     0.210 C 
ENDBRANCH  14  25
BRANCH  15  27
ATOM     27  O9  RES d   1      16.990  -5.759 -22.459  0.00  0.00    -0.358 OA
ATOM     28  H36 RES d   1      17.465  -4.958 -22.192  0.00  0.00     0.217 HD
ENDBRANCH  15  27
TORSDOF 7
ENDMDL
MODEL 5
REMARK VINA RESULT:    -5.939      2.162      4.683
REMARK INTER + INTRA:          -7.815
REMARK INTER:                  -7.488
REMARK INTRA:                  -0.327
REMARK UNBOUND:                -0.314
REMARK  7 active torsions:
REMARK  status: ('A' for Active; 'I' for Inactive)
REMARK    1  A    between atoms: O3_3  and  C12_12 
REMARK    2  A    between atoms: O4_4  and  C13_13 
REMARK    3  A    between atoms: O5_5  and  C16_16 
REMARK    4  A    between atoms: O6_6  and  C19_19 
REMARK    5  A    between atoms: O8_8  and  C21_21 
REMARK    6  A    between atoms: O9_9  and  C22_22 
REMARK    7  A    between atoms: C14_14  and  C16_16 
ROOT
ATOM      1  O1  RES d   1      16.693  -8.153 -25.269  0.00  0.00    -0.368 OA
ATOM      2  O2  RES d   1      19.112 -10.677 -24.200  0.00  0.00    -0.306 OA
ATOM      3  O7  RES d   1      21.192 -10.492 -23.471  0.00  0.00    -0.259 OA
ATOM      4  C10 RES d   1      17.849 -10.006 -24.314  0.00  0.00     0.197 C 
ATOM      5  C11 RES d   1      17.963  -8.783 -25.222  0.00  0.00     0.191 C 
ATOM      6  C12 RES d   1      16.817 -10.977 -24.859  0.00  0.00     0.181 C 
ATOM      7  C13 RES d   1      15.494 -10.244 -25.134  0.00  0.00     0.180 C 
ATOM      8  C14 RES d   1      15.710  -8.955 -25.929  0.00  0.00     0.177 C 
ATOM      9  C15 RES d   1      19.021  -7.865 -24.671  0.00  0.00     0.026 A 
ATOM     10  C17 RES d   1      20.074  -8.445 -23.946  0.00  0.00     0.054 A 
ATOM     11  C18 RES d   1      20.189  -9.934 -23.825  0.00  0.00     0.294 C 
ATOM     12  C19 RES d   1      19.053  -6.486 -24.887  0.00  0.00     0.111 A 
ATOM     13  C20 RES d   1      21.114  -7.686 -23.416  0.00  0.00     0.057 A 
ATOM     14  C21 RES d   1      20.063  -5.717 -24.301  0.00  0.00     0.135 A 
ATOM     15  C22 RES d   1      21.104  -6.310 -23.589  0.00  0.00     0.102 A 
ENDROOT
BRANCH   8  16
ATOM     16  C16 RES d   1      14.479  -8.071 -26.045  0.00  0.00     0.198 C 
BRANCH  16  17
ATOM     17  O5  RES d   1      13.546  -8.365 -25.019  0.00  0.00    -0.398 OA
ATOM     18  H34 RES d   1      13.548  -9.325 -24.900  0.00  0.00     0.209 HD
ENDBRANCH  16  17
ENDBRANCH   8  16
BRANCH   7  19
ATOM     19  O4  RES d   1      14.560 -11.130 -25.754  0.00  0.00    -0.390 OA
ATOM     20  H32 RES d   1      14.980 -11.991 -25.882  0.00  0.00     0.210 HD
ENDBRANCH   7  19
BRANCH   6  21
ATOM     21  O3  RES d   1      16.625 -12.025 -23.930  0.00  0.00    -0.390 OA
ATOM     22  H31 RES d   1      17.402 -12.598 -23.970  0.00  0.00     0.210 HD
ENDBRANCH   6  21
BRANCH  12  23
ATOM     23  O6  RES d   1      18.127  -5.861 -25.670  0.00  0.00    -0.357 OA
ATOM     24  H35 RES d   1      17.256  -6.098 -25.318  0.00  0.00     0.217 HD
ENDBRANCH  12  23
BRANCH  14  25
ATOM     25  O8  RES d   1      20.070  -4.349 -24.512  0.00  0.00    -0.351 OA
ATOM     26  C23 RES d   1      19.408  -3.592 -23.472  0.00  0.00     0.210 C 
ENDBRANCH  14  25
BRANCH  15  27
ATOM     27  O9  RES d   1      22.112  -5.554 -23.078  0.00  0.00    -0.358 OA
ATOM     28  H36 RES d   1      22.618  -5.185 -23.818  0.00  0.00     0.217 HD
ENDBRANCH  15  27
TORSDOF 7
ENDMDL
MODEL 6
REMARK VINA RESULT:    -5.919      1.754      6.217
REMARK INTER + INTRA:          -7.791
REMARK INTER:                  -7.623
REMARK INTRA:                  -0.168
REMARK UNBOUND:                -0.314
REMARK  7 active torsions:
REMARK  status: ('A' for Active; 'I' for Inactive)
REMARK    1  A    between atoms: O3_3  and  C12_12 
REMARK    2  A    between atoms: O4_4  and  C13_13 
REMARK    3  A    between atoms: O5_5  and  C16_16 
REMARK    4  A    between atoms: O6_6  and  C19_19 
REMARK    5  A    between atoms: O8_8  and  C21_21 
REMARK    6  A    between atoms: O9_9  and  C22_22 
REMARK    7  A    between atoms: C14_14  and  C16_16 
ROOT
ATOM      1  O1  RES d   1      16.219  -9.932 -24.450  0.00  0.00    -0.368 OA
ATOM      2  O2  RES d   1      19.234  -7.919 -23.974  0.00  0.00    -0.306 OA
ATOM      3  O7  RES d   1      21.323  -8.497 -23.534  0.00  0.00    -0.259 OA
ATOM      4  C10 RES d   1      18.001  -8.352 -24.566  0.00  0.00     0.197 C 
ATOM      5  C11 RES d   1      17.416  -9.537 -23.800  0.00  0.00     0.191 C 
ATOM      6  C12 RES d   1      17.021  -7.193 -24.579  0.00  0.00     0.181 C 
ATOM      7  C13 RES d   1      15.644  -7.669 -25.069  0.00  0.00     0.180 C 
ATOM      8  C14 RES d   1      15.191  -8.943 -24.349  0.00  0.00     0.177 C 
ATOM      9  C15 RES d   1      18.430 -10.649 -23.776  0.00  0.00     0.026 A 
ATOM     10  C17 RES d   1      19.788 -10.294 -23.820  0.00  0.00     0.054 A 
ATOM     11  C18 RES d   1      20.203  -8.855 -23.781  0.00  0.00     0.294 C 
ATOM     12  C19 RES d   1      18.109 -12.002 -23.652  0.00  0.00     0.111 A 
ATOM     13  C20 RES d   1      20.803 -11.246 -23.777  0.00  0.00     0.057 A 
ATOM     14  C21 RES d   1      19.126 -12.960 -23.675  0.00  0.00     0.135 A 
ATOM     15  C22 RES d   1      20.469 -12.590 -23.712  0.00  0.00     0.102 A 
ENDROOT
BRANCH   8  16
ATOM     16  C16 RES d   1      13.948  -9.591 -24.935  0.00  0.00     0.198 C 
BRANCH  16  17
ATOM     17  O5  RES d   1      14.269 -10.811 -25.581  0.00  0.00    -0.398 OA
ATOM     18  H34 RES d   1      14.057 -10.701 -26.519  0.00  0.00     0.209 HD
ENDBRANCH  16  17
ENDBRANCH   8  16
BRANCH   7  19
ATOM     19  O4  RES d   1      14.692  -6.608 -24.971  0.00  0.00    -0.390 OA
ATOM     20  H32 RES d   1      13.907  -6.931 -24.509  0.00  0.00     0.210 HD
ENDBRANCH   7  19
BRANCH   6  21
ATOM     21  O3  RES d   1      17.521  -6.167 -25.414  0.00  0.00    -0.390 OA
ATOM     22  H31 RES d   1      18.459  -6.057 -25.211  0.00  0.00     0.210 HD
ENDBRANCH   6  21
BRANCH  12  23
ATOM     23  O6  RES d   1      16.820 -12.421 -23.495  0.00  0.00    -0.357 OA
ATOM     24  H35 RES d   1      16.721 -12.683 -22.567  0.00  0.00     0.217 HD
ENDBRANCH  12  23
BRANCH  14  25
ATOM     25  O8  RES d   1      18.788 -14.298 -23.566  0.00  0.00    -0.351 OA
ATOM     26  C23 RES d   1      18.588 -14.957 -24.839  0.00  0.00     0.210 C 
ENDBRANCH  14  25
BRANCH  15  27
ATOM     27  O9  RES d   1      21.449 -13.532 -23.670  0.00  0.00    -0.358 OA
ATOM     28  H36 RES d   1      21.311 -14.076 -22.881  0.00  0.00     0.217 HD
ENDBRANCH  15  27
TORSDOF 7
ENDMDL
MODEL 7
REMARK VINA RESULT:    -5.914      1.997      6.250
REMARK INTER + INTRA:          -7.783
REMARK INTER:                  -7.495
REMARK INTRA:                  -0.289
REMARK UNBOUND:                -0.314
REMARK  7 active torsions:
REMARK  status: ('A' for Active; 'I' for Inactive)
REMARK    1  A    between atoms: O3_3  and  C12_12 
REMARK    2  A    between atoms: O4_4  and  C13_13 
REMARK    3  A    between atoms: O5_5  and  C16_16 
REMARK    4  A    between atoms: O6_6  and  C19_19 
REMARK    5  A    between atoms: O8_8  and  C21_21 
REMARK    6  A    between atoms: O9_9  and  C22_22 
REMARK    7  A    between atoms: C14_14  and  C16_16 
ROOT
ATOM      1  O1  RES d   1      18.147  -6.008 -24.298  0.00  0.00    -0.368 OA
ATOM      2  O2  RES d   1      19.337  -9.312 -23.280  0.00  0.00    -0.306 OA
ATOM      3  O7  RES d   1      18.327 -11.279 -23.234  0.00  0.00    -0.259 OA
ATOM      4  C10 RES d   1      19.360  -8.024 -23.911  0.00  0.00     0.197 C 
ATOM      5  C11 RES d   1      18.071  -7.254 -23.625  0.00  0.00     0.191 C 
ATOM      6  C12 RES d   1      20.564  -7.246 -23.412  0.00  0.00     0.181 C 
ATOM      7  C13 RES d   1      20.529  -5.809 -23.956  0.00  0.00     0.180 C 
ATOM      8  C14 RES d   1      19.159  -5.156 -23.756  0.00  0.00     0.177 C 
ATOM      9  C15 RES d   1      16.900  -8.074 -24.098  0.00  0.00     0.026 A 
ATOM     10  C17 RES d   1      17.037  -9.471 -24.091  0.00  0.00     0.054 A 
ATOM     11  C18 RES d   1      18.266 -10.116 -23.527  0.00  0.00     0.294 C 
ATOM     12  C19 RES d   1      15.672  -7.536 -24.486  0.00  0.00     0.111 A 
ATOM     13  C20 RES d   1      16.004 -10.318 -24.485  0.00  0.00     0.057 A 
ATOM     14  C21 RES d   1      14.659  -8.383 -24.942  0.00  0.00     0.135 A 
ATOM     15  C22 RES d   1      14.809  -9.769 -24.922  0.00  0.00     0.102 A 
ENDROOT
BRANCH   8  16
ATOM     16  C16 RES d   1      18.986  -3.822 -24.464  0.00  0.00     0.198 C 
BRANCH  16  17
ATOM     17  O5  RES d   1      20.094  -3.547 -25.305  0.00  0.00    -0.398 OA
ATOM     18  H34 RES d   1      20.691  -2.971 -24.808  0.00  0.00     0.209 HD
ENDBRANCH  16  17
ENDBRANCH   8  16
BRANCH   7  19
ATOM     19  O4  RES d   1      21.596  -5.044 -23.395  0.00  0.00    -0.390 OA
ATOM     20  H32 RES d   1      22.052  -5.578 -22.731  0.00  0.00     0.210 HD
ENDBRANCH   7  19
BRANCH   6  21
ATOM     21  O3  RES d   1      21.747  -7.906 -23.817  0.00  0.00    -0.390 OA
ATOM     22  H31 RES d   1      22.311  -8.001 -23.038  0.00  0.00     0.210 HD
ENDBRANCH   6  21
BRANCH  12  23
ATOM     23  O6  RES d   1      15.423  -6.196 -24.419  0.00  0.00    -0.357 OA
ATOM     24  H35 RES d   1      15.948  -5.778 -25.117  0.00  0.00     0.217 HD
ENDBRANCH  12  23
BRANCH  14  25
ATOM     25  O8  RES d   1      13.452  -7.831 -25.337  0.00  0.00    -0.351 OA
ATOM     26  C23 RES d   1      13.441  -7.363 -26.707  0.00  0.00     0.210 C 
ENDBRANCH  14  25
BRANCH  15  27
ATOM     27  O9  RES d   1      13.790 -10.581 -25.311  0.00  0.00    -0.358 OA
ATOM     28  H36 RES d   1      13.981 -10.897 -26.207  0.00  0.00     0.217 HD
ENDBRANCH  15  27
TORSDOF 7
ENDMDL
MODEL 8
REMARK VINA RESULT:    -5.870      2.723      5.888
REMARK INTER + INTRA:          -7.728
REMARK INTER:                  -7.472
REMARK INTRA:                  -0.256
REMARK UNBOUND:                -0.314
REMARK  7 active torsions:
REMARK  status: ('A' for Active; 'I' for Inactive)
REMARK    1  A    between atoms: O3_3  and  C12_12 
REMARK    2  A    between atoms: O4_4  and  C13_13 
REMARK    3  A    between atoms: O5_5  and  C16_16 
REMARK    4  A    between atoms: O6_6  and  C19_19 
REMARK    5  A    between atoms: O8_8  and  C21_21 
REMARK    6  A    between atoms: O9_9  and  C22_22 
REMARK    7  A    between atoms: C14_14  and  C16_16 
ROOT
ATOM      1  O1  RES d   1      18.411  -8.247 -23.961  0.00  0.00    -0.368 OA
ATOM      2  O2  RES d   1      17.251 -11.605 -23.096  0.00  0.00    -0.306 OA
ATOM      3  O7  RES d   1      18.189 -13.589 -23.361  0.00  0.00    -0.259 OA
ATOM      4  C10 RES d   1      17.506 -10.202 -22.938  0.00  0.00     0.197 C 
ATOM      5  C11 RES d   1      18.160  -9.624 -24.192  0.00  0.00     0.191 C 
ATOM      6  C12 RES d   1      16.199  -9.487 -22.645  0.00  0.00     0.181 C 
ATOM      7  C13 RES d   1      16.421  -7.966 -22.622  0.00  0.00     0.180 C 
ATOM      8  C14 RES d   1      17.206  -7.485 -23.845  0.00  0.00     0.177 C 
ATOM      9  C15 RES d   1      19.430 -10.382 -24.472  0.00  0.00     0.026 A 
ATOM     10  C17 RES d   1      19.492 -11.724 -24.061  0.00  0.00     0.054 A 
ATOM     11  C18 RES d   1      18.292 -12.397 -23.468  0.00  0.00     0.294 C 
ATOM     12  C19 RES d   1      20.523  -9.856 -25.163  0.00  0.00     0.111 A 
ATOM     13  C20 RES d   1      20.611 -12.518 -24.295  0.00  0.00     0.057 A 
ATOM     14  C21 RES d   1      21.670 -10.634 -25.340  0.00  0.00     0.135 A 
ATOM     15  C22 RES d   1      21.712 -11.966 -24.933  0.00  0.00     0.102 A 
ENDROOT
BRANCH   8  16
ATOM     16  C16 RES d   1      17.651  -6.034 -23.778  0.00  0.00     0.198 C 
BRANCH  16  17
ATOM     17  O5  RES d   1      17.671  -5.571 -22.438  0.00  0.00    -0.398 OA
ATOM     18  H34 RES d   1      18.232  -6.178 -21.936  0.00  0.00     0.209 HD
ENDBRANCH  16  17
ENDBRANCH   8  16
BRANCH   7  19
ATOM     19  O4  RES d   1      15.173  -7.290 -22.462  0.00  0.00    -0.390 OA
ATOM     20  H32 RES d   1      15.061  -7.050 -21.533  0.00  0.00     0.210 HD
ENDBRANCH   7  19
BRANCH   6  21
ATOM     21  O3  RES d   1      15.689  -9.937 -21.405  0.00  0.00    -0.390 OA
ATOM     22  H31 RES d   1      14.731 -10.022 -21.497  0.00  0.00     0.210 HD
ENDBRANCH   6  21
BRANCH  12  23
ATOM     23  O6  RES d   1      20.499  -8.597 -25.688  0.00  0.00    -0.357 OA
ATOM     24  H35 RES d   1      19.992  -8.046 -25.073  0.00  0.00     0.217 HD
ENDBRANCH  12  23
BRANCH  14  25
ATOM     25  O8  RES d   1      22.750 -10.090 -26.015  0.00  0.00    -0.351 OA
ATOM     26  C23 RES d   1      23.843  -9.697 -25.152  0.00  0.00     0.210 C 
ENDBRANCH  14  25
BRANCH  15  27
ATOM     27  O9  RES d   1      22.813 -12.728 -25.168  0.00  0.00    -0.358 OA
ATOM     28  H36 RES d   1      22.569 -13.428 -25.792  0.00  0.00     0.217 HD
ENDBRANCH  15  27
TORSDOF 7
ENDMDL
MODEL 9
REMARK VINA RESULT:    -5.867      2.968      6.824
REMARK INTER + INTRA:          -7.724
REMARK INTER:                  -7.409
REMARK INTRA:                  -0.315
REMARK UNBOUND:                -0.314
REMARK  7 active torsions:
REMARK  status: ('A' for Active; 'I' for Inactive)
REMARK    1  A    between atoms: O3_3  and  C12_12 
REMARK    2  A    between atoms: O4_4  and  C13_13 
REMARK    3  A    between atoms: O5_5  and  C16_16 
REMARK    4  A    between atoms: O6_6  and  C19_19 
REMARK    5  A    between atoms: O8_8  and  C21_21 
REMARK    6  A    between atoms: O9_9  and  C22_22 
REMARK    7  A    between atoms: C14_14  and  C16_16 
ROOT
ATOM      1  O1  RES d   1      18.165 -10.218 -23.649  0.00  0.00    -0.368 OA
ATOM      2  O2  RES d   1      21.558  -8.900 -23.995  0.00  0.00    -0.306 OA
ATOM      3  O7  RES d   1      23.279  -9.592 -25.199  0.00  0.00    -0.259 OA
ATOM      4  C10 RES d   1      20.126  -8.886 -23.902  0.00  0.00     0.197 C 
ATOM      5  C11 RES d   1      19.580 -10.299 -23.705  0.00  0.00     0.191 C 
ATOM      6  C12 RES d   1      19.711  -7.991 -22.747  0.00  0.00     0.181 C 
ATOM      7  C13 RES d   1      18.191  -8.078 -22.531  0.00  0.00     0.180 C 
ATOM      8  C14 RES d   1      17.703  -9.528 -22.485  0.00  0.00     0.177 C 
ATOM      9  C15 RES d   1      20.044 -11.163 -24.847  0.00  0.00     0.026 A 
ATOM     10  C17 RES d   1      21.266 -10.837 -25.457  0.00  0.00     0.054 A 
ATOM     11  C18 RES d   1      22.121  -9.734 -24.911  0.00  0.00     0.294 C 
ATOM     12  C19 RES d   1      19.369 -12.300 -25.296  0.00  0.00     0.111 A 
ATOM     13  C20 RES d   1      21.795 -11.588 -26.503  0.00  0.00     0.057 A 
ATOM     14  C21 RES d   1      19.868 -13.015 -26.388  0.00  0.00     0.135 A 
ATOM     15  C22 RES d   1      21.086 -12.681 -26.977  0.00  0.00     0.102 A 
ENDROOT
BRANCH   8  16
ATOM     16  C16 RES d   1      16.192  -9.686 -22.495  0.00  0.00     0.198 C 
BRANCH  16  17
ATOM     17  O5  RES d   1      15.632  -9.279 -21.257  0.00  0.00    -0.398 OA
ATOM     18  H34 RES d   1      14.797  -8.831 -21.457  0.00  0.00     0.209 HD
ENDBRANCH  16  17
ENDBRANCH   8  16
BRANCH   7  19
ATOM     19  O4  RES d   1      17.816  -7.329 -21.374  0.00  0.00    -0.390 OA
ATOM     20  H32 RES d   1      17.683  -7.937 -20.634  0.00  0.00     0.210 HD
ENDBRANCH   7  19
BRANCH   6  21
ATOM     21  O3  RES d   1      20.102  -6.661 -23.024  0.00  0.00    -0.390 OA
ATOM     22  H31 RES d   1      19.836  -6.460 -23.931  0.00  0.00     0.210 HD
ENDBRANCH   6  21
BRANCH  12  23
ATOM     23  O6  RES d   1      18.232 -12.745 -24.687  0.00  0.00    -0.357 OA
ATOM     24  H35 RES d   1      17.979 -13.568 -25.133  0.00  0.00     0.217 HD
ENDBRANCH  12  23
BRANCH  14  25
ATOM     25  O8  RES d   1      19.177 -14.130 -26.830  0.00  0.00    -0.351 OA
ATOM     26  C23 RES d   1      18.212 -13.847 -27.871  0.00  0.00     0.210 C 
ENDBRANCH  14  25
BRANCH  15  27
ATOM     27  O9  RES d   1      21.588 -13.425 -27.999  0.00  0.00    -0.358 OA
ATOM     28  H36 RES d   1      22.192 -14.083 -27.625  0.00  0.00     0.217 HD
ENDBRANCH  15  27
TORSDOF 7
ENDMDL
