@<TRIPOS>MOLECULE
result_docking2_blind_rigid_5svr_P2X3_Tolrestat_meeko
 25 26 0 0 0
SMALL
GASTEIGER

@<TRIPOS>ATOM
      1  N         17.6260  -10.6380  -23.8700 N.am    1  UNL1       -0.2911
      2  C         17.2780  -12.0570  -23.9730 C.3     1  UNL1        0.1131
      3  C         18.2890   -9.9080  -24.8930 C.2     1  UNL1        0.0848
      4  S         17.5290   -9.3330  -26.3070 S.2     1  UNL1       -0.0347
      5  C         19.7080   -9.6210  -24.7060 C.2     1  UNL1        0.0200
      6  C         20.7190  -10.4790  -25.1690 C.2     1  UNL1        0.0019
      7  C         20.0280   -8.4400  -24.0360 C.2     1  UNL1        0.0018
      8  C         22.0740  -10.1340  -24.9510 C.2     1  UNL1        0.0069
      9  C         20.4130  -11.6720  -25.8460 C.2     1  UNL1        0.0032
     10  C         21.3610   -8.1010  -23.8220 C.2     1  UNL1        0.0001
     11  C         23.0840  -10.9910  -25.4150 C.2     1  UNL1        0.1053
     12  C         22.3780   -8.9410  -24.2760 C.2     1  UNL1        0.0001
     13  C         21.4300  -12.5120  -26.3000 C.2     1  UNL1        0.0368
     14  C         22.7630  -12.1730  -26.0850 C.2     1  UNL1        0.1426
     15  C         24.5340  -10.6700  -25.2080 C.3     1  UNL1        0.4214
     16  F         24.7960   -9.3330  -25.2100 F       1  UNL1       -0.1657
     17  F         25.0240  -11.1350  -24.0240 F       1  UNL1       -0.1657
     18  F         25.3260  -11.2070  -26.1760 F       1  UNL1       -0.1657
     19  O         23.7400  -13.0090  -26.5370 O.2     1  UNL1       -0.4715
     20  C         23.6190  -13.4800  -27.8780 C.3     1  UNL1        0.2525
     21  C         17.2280  -10.0230  -22.6000 C.3     1  UNL1        0.2021
     22  C         15.8510   -9.4160  -22.6480 C.2     1  UNL1        0.3343
     23  O         15.6260   -8.2990  -23.0980 O.2     1  UNL1       -0.2484
     24  O         14.8860  -10.2200  -22.1460 O.3     1  UNL1       -0.4790
     25 H          15.1083  -11.0671  -21.8129 H       1  UNL1        0.2951
@<TRIPOS>BOND
     1    20    19    1
     2    19    14    1
     3     4     3    2
     4    13    14    1
     5    13     9    2
     6    18    15    1
     7    14    11    2
     8     9     6    1
     9    11    15    1
    10    11     8    1
    11    16    15    1
    12    15    17    1
    13     6     8    1
    14     6     5    2
    15     8    12    2
    16     3     5    1
    17     3     1    1
    18     5     7    1
    19    12    10    1
    20     7    10    2
    21     2     1    1
    22     1    21    1
    23    23    22    2
    24    22    21    1
    25    22    24    1
    26    24    25    1
