@<TRIPOS>MOLECULE
result_docking2_blind_rigid_5svr_P2X3_ACD5b_I
 41 44 0 0 0
SMALL
GASTEIGER

@<TRIPOS>ATOM
      1  C2        17.5210   -7.0470  -22.9220 C.2     1  non1        0.2062
      2  C3        16.5030   -6.4520  -23.5890 C.2     1  non1        0.1856
      3  C11       15.6130   -7.1950  -24.2710 C.2     1  non1        0.0472
      4  C12       15.7210   -8.5390  -24.2860 C.2     1  non1        0.0802
      5  C13       14.6700   -9.2940  -25.0380 C.2     1  non1        0.3412
      6  O8        13.6160   -8.7820  -25.3950 O.2     1  non1       -0.2449
      7  O9        14.9300  -10.6030  -25.2940 O.3     1  non1       -0.4437
      8  C14       16.2680  -11.0880  -25.0880 C.3     1  non1        0.2293
      9  C15       16.2480  -12.6110  -25.1810 C.3     1  non1        0.1826
     10  C16       17.6330  -13.1870  -24.8680 C.3     1  non1        0.1704
     11  C17       18.1710  -12.6190  -23.5450 C.3     1  non1        0.1740
     12  O13       18.1150  -11.1750  -23.5240 O.3     1  non1       -0.3453
     13  C19       16.7840  -10.6780  -23.7110 C.3     1  non1        0.1831
     14  C20       16.7310   -9.1610  -23.6250 C.2     1  non1        0.0514
     15  C21       17.6410   -8.4020  -22.9520 C.2     1  non1        0.1693
     16  O2        16.3770   -5.0460  -23.6080 O.3     1  non1       -0.4178
     17  C4        16.8130   -4.4800  -24.7730 C.2     1  non1        0.3459
     18  O3        16.4160   -4.7180  -25.9060 O.2     1  non1       -0.2445
     19  C5        17.9270   -3.5190  -24.4860 C.2     1  non1        0.0793
     20  C6        17.9740   -2.7880  -23.3470 C.2     1  non1        0.0306
     21  C7        19.0040   -1.9320  -23.1570 C.2     1  non1        0.1447
     22  C8        19.9860   -1.7840  -24.0720 C.2     1  non1        0.0481
     23  C9        19.9110   -2.5220  -25.2010 C.2     1  non1        0.1447
     24  C10       18.8950   -3.3850  -25.4220 C.2     1  non1        0.0306
     25  N2        19.0530   -1.1400  -21.9200 N.pl3   1  non1        0.0577
     26  O6        18.0260   -0.5410  -21.5780 O.2     1  non1       -0.1261
     27  O7        20.1200   -1.1150  -21.2920 O.2     1  non1       -0.1261
     28  N1        20.9640   -2.3820  -26.2170 N.pl3   1  non1        0.0577
     29  O4        21.7040   -3.3550  -26.4180 O.2     1  non1       -0.1261
     30  O5        21.0500   -1.3020  -26.8160 O.2     1  non1       -0.1261
     31  O1        18.4290   -6.2210  -22.2590 O.2     1  non1       -0.4654
     32  C1        19.6950   -6.1320  -22.9140 C.3     1  non1        0.2528
     33  O14       18.7110   -8.9950  -22.2930 O.2     1  non1       -0.5029
     34  C18       19.6340  -13.0230  -23.3170 C.3     1  non1        0.1692
     35  O12       19.7430  -14.4350  -23.1290 O.3     1  non1       -0.3794
     36  O10       15.8640  -13.0330  -26.4970 O.3     1  non1       -0.3785
     37  O11       17.5230  -14.6110  -24.7900 O.3     1  non1       -0.3794
     38 H          18.8093   -9.9268  -22.3032 H       1  non1        0.2923
     39 H          20.6729  -14.6714  -22.9866 H       1  non1        0.2105
     40 H          14.9877  -12.6749  -26.7085 H       1  non1        0.2106
     41 H          17.1828  -14.9555  -25.6305 H       1  non1        0.2105
@<TRIPOS>BOND
     1    30    28    2
     2    36     9    1
     3    29    28    2
     4    28    23    1
     5    18    17    2
     6    24    23    1
     7    24    19    2
     8     6     5    2
     9     7     8    1
    10     7     5    1
    11    23    22    2
    12     9     8    1
    13     9    10    1
    14     8    13    1
    15     5     4    1
    16    10    37    1
    17    10    11    1
    18    17    19    1
    19    17    16    1
    20    19    20    1
    21     4     3    2
    22     4    14    1
    23     3     2    1
    24    22    21    1
    25    13    14    1
    26    13    12    1
    27    14    15    2
    28    16     2    1
    29     2     1    2
    30    11    12    1
    31    11    34    1
    32    20    21    2
    33    34    35    1
    34    21    25    1
    35    15     1    1
    36    15    33    1
    37     1    31    1
    38    32    31    1
    39    25    26    2
    40    25    27    2
    41    33    38    1
    42    35    39    1
    43    36    40    1
    44    37    41    1
