MODEL 1
REMARK VINA RESULT:    -6.570      0.000      0.000
REMARK INTER + INTRA:          -6.570
REMARK INTER:                  -6.570
REMARK INTRA:                   0.000
REMARK UNBOUND:                 0.000
REMARK SMILES O=C1NC(=O)[C@@]2(CCOc3ccc(F)cc32)N1
REMARK SMILES IDX 14 1 9 2 5 3 1 4 17 5 3 6 6 7 7 8 16 9 4 10 8 11 10 12 2 13
REMARK SMILES IDX 15 14 11 15 13 16 12 17
REMARK H PARENT 17 18 3 19
REMARK Flexibility Score: inf
ROOT
ATOM      1  F   UNL     1      24.681 -13.148 -26.796  1.00  0.00    -0.207 F 
ATOM      2  O   UNL     1      22.378  -8.847 -24.265  1.00  0.00    -0.493 OA
ATOM      3  O   UNL     1      19.472 -10.916 -26.221  1.00  0.00    -0.271 OA
ATOM      4  O   UNL     1      19.453 -14.504 -23.370  1.00  0.00    -0.248 OA
ATOM      5  N   UNL     1      20.777 -12.580 -23.461  1.00  0.00    -0.319 N 
ATOM      6  N   UNL     1      19.163 -12.840 -24.969  1.00  0.00    -0.276 N 
ATOM      7  C   UNL     1      20.875 -11.367 -24.260  1.00  0.00     0.153 C 
ATOM      8  C   UNL     1      20.511 -10.156 -23.394  1.00  0.00     0.085 C 
ATOM      9  C   UNL     1      22.225 -11.200 -24.915  1.00  0.00     0.032 A 
ATOM     10  C   UNL     1      19.766 -11.647 -25.283  1.00  0.00     0.258 C 
ATOM     11  C   UNL     1      20.962  -8.872 -24.072  1.00  0.00     0.233 C 
ATOM     12  C   UNL     1      22.888  -9.964 -24.878  1.00  0.00     0.125 A 
ATOM     13  C   UNL     1      19.754 -13.432 -23.877  1.00  0.00     0.322 C 
ATOM     14  C   UNL     1      22.847 -12.269 -25.583  1.00  0.00     0.049 A 
ATOM     15  C   UNL     1      24.154  -9.815 -25.452  1.00  0.00     0.050 A 
ATOM     16  C   UNL     1      24.104 -12.114 -26.169  1.00  0.00     0.123 A 
ATOM     17  C   UNL     1      24.759 -10.889 -26.099  1.00  0.00     0.043 A 
ATOM     18  H   UNL     1      21.387 -12.787 -22.676  1.00  0.00     0.166 HD
ATOM     19  H   UNL     1      18.393 -13.245 -25.490  1.00  0.00     0.174 HD
ENDROOT
TORSDOF 0
ENDMDL
MODEL 2
REMARK VINA RESULT:    -6.561      4.193      5.970
REMARK INTER + INTRA:          -6.561
REMARK INTER:                  -6.561
REMARK INTRA:                   0.000
REMARK UNBOUND:                 0.000
REMARK SMILES O=C1NC(=O)[C@@]2(CCOc3ccc(F)cc32)N1
REMARK SMILES IDX 14 1 9 2 5 3 1 4 17 5 3 6 6 7 7 8 16 9 4 10 8 11 10 12 2 13
REMARK SMILES IDX 15 14 11 15 13 16 12 17
REMARK H PARENT 17 18 3 19
REMARK Flexibility Score: inf
ROOT
ATOM      1  F   UNL     1      18.132  -8.296 -21.223  1.00  0.00    -0.207 F 
ATOM      2  O   UNL     1      15.012 -10.558 -25.143  1.00  0.00    -0.493 OA
ATOM      3  O   UNL     1      18.924 -11.030 -26.157  1.00  0.00    -0.271 OA
ATOM      4  O   UNL     1      19.851 -14.201 -22.981  1.00  0.00    -0.248 OA
ATOM      5  N   UNL     1      17.927 -12.958 -23.441  1.00  0.00    -0.319 N 
ATOM      6  N   UNL     1      19.720 -12.667 -24.724  1.00  0.00    -0.276 N 
ATOM      7  C   UNL     1      17.479 -11.970 -24.411  1.00  0.00     0.153 C 
ATOM      8  C   UNL     1      16.375 -12.577 -25.285  1.00  0.00     0.085 C 
ATOM      9  C   UNL     1      17.037 -10.675 -23.774  1.00  0.00     0.032 A 
ATOM     10  C   UNL     1      18.773 -11.805 -25.221  1.00  0.00     0.258 C 
ATOM     11  C   UNL     1      15.638 -11.481 -26.036  1.00  0.00     0.233 C 
ATOM     12  C   UNL     1      15.843 -10.054 -24.174  1.00  0.00     0.125 A 
ATOM     13  C   UNL     1      19.242 -13.374 -23.645  1.00  0.00     0.322 C 
ATOM     14  C   UNL     1      17.808 -10.054 -22.776  1.00  0.00     0.049 A 
ATOM     15  C   UNL     1      15.412  -8.874 -23.560  1.00  0.00     0.050 A 
ATOM     16  C   UNL     1      17.384  -8.867 -22.176  1.00  0.00     0.123 A 
ATOM     17  C   UNL     1      16.184  -8.280 -22.565  1.00  0.00     0.043 A 
ATOM     18  H   UNL     1      17.342 -13.314 -22.690  1.00  0.00     0.166 HD
ATOM     19  H   UNL     1      20.659 -12.756 -25.093  1.00  0.00     0.174 HD
ENDROOT
TORSDOF 0
ENDMDL
MODEL 3
REMARK VINA RESULT:    -6.519      4.888      6.413
REMARK INTER + INTRA:          -6.519
REMARK INTER:                  -6.519
REMARK INTRA:                   0.000
REMARK UNBOUND:                 0.000
REMARK SMILES O=C1NC(=O)[C@@]2(CCOc3ccc(F)cc32)N1
REMARK SMILES IDX 14 1 9 2 5 3 1 4 17 5 3 6 6 7 7 8 16 9 4 10 8 11 10 12 2 13
REMARK SMILES IDX 15 14 11 15 13 16 12 17
REMARK H PARENT 17 18 3 19
REMARK Flexibility Score: inf
ROOT
ATOM      1  F   UNL     1      19.562 -13.019 -23.170  1.00  0.00    -0.207 F 
ATOM      2  O   UNL     1      15.223 -11.144 -25.976  1.00  0.00    -0.493 OA
ATOM      3  O   UNL     1      14.716 -10.244 -22.041  1.00  0.00    -0.271 OA
ATOM      4  O   UNL     1      17.920  -6.970 -21.894  1.00  0.00    -0.248 OA
ATOM      5  N   UNL     1      17.239  -8.423 -23.593  1.00  0.00    -0.319 N 
ATOM      6  N   UNL     1      16.207  -8.519 -21.626  1.00  0.00    -0.276 N 
ATOM      7  C   UNL     1      16.240  -9.460 -23.798  1.00  0.00     0.153 C 
ATOM      8  C   UNL     1      15.218  -8.986 -24.837  1.00  0.00     0.085 C 
ATOM      9  C   UNL     1      16.841 -10.793 -24.175  1.00  0.00     0.032 A 
ATOM     10  C   UNL     1      15.609  -9.485 -22.398  1.00  0.00     0.258 C 
ATOM     11  C   UNL     1      14.399 -10.162 -25.344  1.00  0.00     0.233 C 
ATOM     12  C   UNL     1      16.302 -11.546 -25.230  1.00  0.00     0.125 A 
ATOM     13  C   UNL     1      17.199  -7.864 -22.317  1.00  0.00     0.322 C 
ATOM     14  C   UNL     1      17.943 -11.317 -23.478  1.00  0.00     0.049 A 
ATOM     15  C   UNL     1      16.879 -12.763 -25.606  1.00  0.00     0.050 A 
ATOM     16  C   UNL     1      18.507 -12.541 -23.844  1.00  0.00     0.123 A 
ATOM     17  C   UNL     1      17.978 -13.260 -24.911  1.00  0.00     0.043 A 
ATOM     18  H   UNL     1      17.900  -8.130 -24.307  1.00  0.00     0.166 HD
ATOM     19  H   UNL     1      15.961  -8.328 -20.661  1.00  0.00     0.174 HD
ENDROOT
TORSDOF 0
ENDMDL
MODEL 4
REMARK VINA RESULT:    -6.510      3.917      4.784
REMARK INTER + INTRA:          -6.510
REMARK INTER:                  -6.510
REMARK INTRA:                   0.000
REMARK UNBOUND:                 0.000
REMARK SMILES O=C1NC(=O)[C@@]2(CCOc3ccc(F)cc32)N1
REMARK SMILES IDX 14 1 9 2 5 3 1 4 17 5 3 6 6 7 7 8 16 9 4 10 8 11 10 12 2 13
REMARK SMILES IDX 15 14 11 15 13 16 12 17
REMARK H PARENT 17 18 3 19
REMARK Flexibility Score: inf
ROOT
ATOM      1  F   UNL     1      22.246  -8.708 -24.269  1.00  0.00    -0.207 F 
ATOM      2  O   UNL     1      17.777  -6.178 -22.309  1.00  0.00    -0.493 OA
ATOM      3  O   UNL     1      16.696  -8.430 -25.520  1.00  0.00    -0.271 OA
ATOM      4  O   UNL     1      17.151 -12.481 -23.424  1.00  0.00    -0.248 OA
ATOM      5  N   UNL     1      17.579 -10.294 -22.720  1.00  0.00    -0.319 N 
ATOM      6  N   UNL     1      16.771 -10.620 -24.766  1.00  0.00    -0.276 N 
ATOM      7  C   UNL     1      17.452  -8.941 -23.242  1.00  0.00     0.153 C 
ATOM      8  C   UNL     1      16.391  -8.182 -22.438  1.00  0.00     0.085 C 
ATOM      9  C   UNL     1      18.765  -8.196 -23.277  1.00  0.00     0.032 A 
ATOM     10  C   UNL     1      16.931  -9.260 -24.650  1.00  0.00     0.258 C 
ATOM     11  C   UNL     1      16.502  -6.689 -22.700  1.00  0.00     0.233 C 
ATOM     12  C   UNL     1      18.847  -6.874 -22.812  1.00  0.00     0.125 A 
ATOM     13  C   UNL     1      17.159 -11.273 -23.620  1.00  0.00     0.322 C 
ATOM     14  C   UNL     1      19.931  -8.799 -23.780  1.00  0.00     0.049 A 
ATOM     15  C   UNL     1      20.068  -6.193 -22.809  1.00  0.00     0.050 A 
ATOM     16  C   UNL     1      21.146  -8.112 -23.790  1.00  0.00     0.123 A 
ATOM     17  C   UNL     1      21.215  -6.811 -23.300  1.00  0.00     0.043 A 
ATOM     18  H   UNL     1      17.935 -10.508 -21.793  1.00  0.00     0.166 HD
ATOM     19  H   UNL     1      16.429 -11.085 -25.600  1.00  0.00     0.174 HD
ENDROOT
TORSDOF 0
ENDMDL
MODEL 5
REMARK VINA RESULT:    -6.487      2.013      2.827
REMARK INTER + INTRA:          -6.487
REMARK INTER:                  -6.487
REMARK INTRA:                   0.000
REMARK UNBOUND:                 0.000
REMARK SMILES O=C1NC(=O)[C@@]2(CCOc3ccc(F)cc32)N1
REMARK SMILES IDX 14 1 9 2 5 3 1 4 17 5 3 6 6 7 7 8 16 9 4 10 8 11 10 12 2 13
REMARK SMILES IDX 15 14 11 15 13 16 12 17
REMARK H PARENT 17 18 3 19
REMARK Flexibility Score: inf
ROOT
ATOM      1  F   UNL     1      23.432 -12.150 -25.196  1.00  0.00    -0.207 F 
ATOM      2  O   UNL     1      18.772 -10.072 -23.153  1.00  0.00    -0.493 OA
ATOM      3  O   UNL     1      17.882 -12.246 -26.475  1.00  0.00    -0.271 OA
ATOM      4  O   UNL     1      18.643 -16.344 -24.570  1.00  0.00    -0.248 OA
ATOM      5  N   UNL     1      18.897 -14.166 -23.760  1.00  0.00    -0.319 N 
ATOM      6  N   UNL     1      18.124 -14.456 -25.825  1.00  0.00    -0.276 N 
ATOM      7  C   UNL     1      18.667 -12.805 -24.218  1.00  0.00     0.153 C 
ATOM      8  C   UNL     1      17.546 -12.170 -23.388  1.00  0.00     0.085 C 
ATOM      9  C   UNL     1      19.918 -11.959 -24.208  1.00  0.00     0.032 A 
ATOM     10  C   UNL     1      18.177 -13.096 -25.644  1.00  0.00     0.258 C 
ATOM     11  C   UNL     1      17.542 -10.662 -23.578  1.00  0.00     0.233 C 
ATOM     12  C   UNL     1      19.894 -10.658 -23.681  1.00  0.00     0.125 A 
ATOM     13  C   UNL     1      18.558 -15.132 -24.708  1.00  0.00     0.322 C 
ATOM     14  C   UNL     1      21.129 -12.445 -24.730  1.00  0.00     0.049 A 
ATOM     15  C   UNL     1      21.059  -9.886 -23.636  1.00  0.00     0.050 A 
ATOM     16  C   UNL     1      22.287 -11.666 -24.698  1.00  0.00     0.123 A 
ATOM     17  C   UNL     1      22.252 -10.389 -24.147  1.00  0.00     0.043 A 
ATOM     18  H   UNL     1      19.265 -14.396 -22.842  1.00  0.00     0.166 HD
ATOM     19  H   UNL     1      17.823 -14.906 -26.683  1.00  0.00     0.174 HD
ENDROOT
TORSDOF 0
ENDMDL
MODEL 6
REMARK VINA RESULT:    -6.429      3.656      4.463
REMARK INTER + INTRA:          -6.429
REMARK INTER:                  -6.429
REMARK INTRA:                   0.000
REMARK UNBOUND:                 0.000
REMARK SMILES O=C1NC(=O)[C@@]2(CCOc3ccc(F)cc32)N1
REMARK SMILES IDX 14 1 9 2 5 3 1 4 17 5 3 6 6 7 7 8 16 9 4 10 8 11 10 12 2 13
REMARK SMILES IDX 15 14 11 15 13 16 12 17
REMARK H PARENT 17 18 3 19
REMARK Flexibility Score: inf
ROOT
ATOM      1  F   UNL     1      20.699 -12.001 -24.423  1.00  0.00    -0.207 F 
ATOM      2  O   UNL     1      20.626  -6.639 -23.213  1.00  0.00    -0.493 OA
ATOM      3  O   UNL     1      17.130  -7.606 -25.057  1.00  0.00    -0.271 OA
ATOM      4  O   UNL     1      15.375  -9.949 -21.531  1.00  0.00    -0.248 OA
ATOM      5  N   UNL     1      17.447  -8.917 -21.852  1.00  0.00    -0.319 N 
ATOM      6  N   UNL     1      15.930  -8.799 -23.474  1.00  0.00    -0.276 N 
ATOM      7  C   UNL     1      18.118  -8.125 -22.871  1.00  0.00     0.153 C 
ATOM      8  C   UNL     1      18.346  -6.704 -22.344  1.00  0.00     0.085 C 
ATOM      9  C   UNL     1      19.402  -8.753 -23.357  1.00  0.00     0.032 A 
ATOM     10  C   UNL     1      17.028  -8.126 -23.953  1.00  0.00     0.258 C 
ATOM     11  C   UNL     1      19.360  -5.978 -23.214  1.00  0.00     0.233 C 
ATOM     12  C   UNL     1      20.566  -7.981 -23.496  1.00  0.00     0.125 A 
ATOM     13  C   UNL     1      16.153  -9.294 -22.210  1.00  0.00     0.322 C 
ATOM     14  C   UNL     1      19.465 -10.118 -23.689  1.00  0.00     0.049 A 
ATOM     15  C   UNL     1      21.766  -8.567 -23.911  1.00  0.00     0.050 A 
ATOM     16  C   UNL     1      20.660 -10.697 -24.118  1.00  0.00     0.123 A 
ATOM     17  C   UNL     1      21.811  -9.923 -24.224  1.00  0.00     0.043 A 
ATOM     18  H   UNL     1      17.873  -9.170 -20.965  1.00  0.00     0.166 HD
ATOM     19  H   UNL     1      15.071  -8.933 -23.996  1.00  0.00     0.174 HD
ENDROOT
TORSDOF 0
ENDMDL
MODEL 7
REMARK VINA RESULT:    -6.333      3.695      5.371
REMARK INTER + INTRA:          -6.333
REMARK INTER:                  -6.333
REMARK INTRA:                   0.000
REMARK UNBOUND:                 0.000
REMARK SMILES O=C1NC(=O)[C@@]2(CCOc3ccc(F)cc32)N1
REMARK SMILES IDX 14 1 9 2 5 3 1 4 17 5 3 6 6 7 7 8 16 9 4 10 8 11 10 12 2 13
REMARK SMILES IDX 15 14 11 15 13 16 12 17
REMARK H PARENT 17 18 3 19
REMARK Flexibility Score: inf
ROOT
ATOM      1  F   UNL     1      14.687 -10.427 -23.246  1.00  0.00    -0.207 F 
ATOM      2  O   UNL     1      20.126  -9.835 -22.714  1.00  0.00    -0.493 OA
ATOM      3  O   UNL     1      19.236 -13.805 -22.659  1.00  0.00    -0.271 OA
ATOM      4  O   UNL     1      18.203 -14.115 -27.113  1.00  0.00    -0.248 OA
ATOM      5  N   UNL     1      18.792 -12.301 -25.762  1.00  0.00    -0.319 N 
ATOM      6  N   UNL     1      18.699 -14.327 -24.851  1.00  0.00    -0.276 N 
ATOM      7  C   UNL     1      19.176 -12.057 -24.380  1.00  0.00     0.153 C 
ATOM      8  C   UNL     1      20.635 -11.592 -24.330  1.00  0.00     0.085 C 
ATOM      9  C   UNL     1      18.257 -11.089 -23.674  1.00  0.00     0.032 A 
ATOM     10  C   UNL     1      19.049 -13.483 -23.826  1.00  0.00     0.258 C 
ATOM     11  C   UNL     1      20.944 -10.977 -22.975  1.00  0.00     0.233 C 
ATOM     12  C   UNL     1      18.782 -10.048 -22.893  1.00  0.00     0.125 A 
ATOM     13  C   UNL     1      18.530 -13.644 -26.033  1.00  0.00     0.322 C 
ATOM     14  C   UNL     1      16.860 -11.208 -23.773  1.00  0.00     0.049 A 
ATOM     15  C   UNL     1      17.935  -9.127 -22.268  1.00  0.00     0.050 A 
ATOM     16  C   UNL     1      16.015 -10.298 -23.135  1.00  0.00     0.123 A 
ATOM     17  C   UNL     1      16.554  -9.255 -22.387  1.00  0.00     0.043 A 
ATOM     18  H   UNL     1      18.724 -11.570 -26.464  1.00  0.00     0.166 HD
ATOM     19  H   UNL     1      18.561 -15.326 -24.746  1.00  0.00     0.174 HD
ENDROOT
TORSDOF 0
ENDMDL
MODEL 8
REMARK VINA RESULT:    -6.152      3.916      5.011
REMARK INTER + INTRA:          -6.152
REMARK INTER:                  -6.152
REMARK INTRA:                   0.000
REMARK UNBOUND:                 0.000
REMARK SMILES O=C1NC(=O)[C@@]2(CCOc3ccc(F)cc32)N1
REMARK SMILES IDX 14 1 9 2 5 3 1 4 17 5 3 6 6 7 7 8 16 9 4 10 8 11 10 12 2 13
REMARK SMILES IDX 15 14 11 15 13 16 12 17
REMARK H PARENT 17 18 3 19
REMARK Flexibility Score: inf
ROOT
ATOM      1  F   UNL     1      17.892 -14.365 -24.542  1.00  0.00    -0.207 F 
ATOM      2  O   UNL     1      20.205  -9.710 -22.755  1.00  0.00    -0.493 OA
ATOM      3  O   UNL     1      17.291  -8.771 -25.434  1.00  0.00    -0.271 OA
ATOM      4  O   UNL     1      13.776  -9.832 -22.693  1.00  0.00    -0.248 OA
ATOM      5  N   UNL     1      16.089 -10.014 -22.418  1.00  0.00    -0.319 N 
ATOM      6  N   UNL     1      15.301  -9.157 -24.313  1.00  0.00    -0.276 N 
ATOM      7  C   UNL     1      17.299  -9.692 -23.160  1.00  0.00     0.153 C 
ATOM      8  C   UNL     1      18.065  -8.583 -22.432  1.00  0.00     0.085 C 
ATOM      9  C   UNL     1      18.171 -10.898 -23.417  1.00  0.00     0.032 A 
ATOM     10  C   UNL     1      16.668  -9.150 -24.451  1.00  0.00     0.258 C 
ATOM     11  C   UNL     1      19.487  -8.492 -22.961  1.00  0.00     0.233 C 
ATOM     12  C   UNL     1      19.557 -10.834 -23.201  1.00  0.00     0.125 A 
ATOM     13  C   UNL     1      14.919  -9.678 -23.099  1.00  0.00     0.322 C 
ATOM     14  C   UNL     1      17.625 -12.105 -23.885  1.00  0.00     0.049 A 
ATOM     15  C   UNL     1      20.363 -11.959 -23.402  1.00  0.00     0.050 A 
ATOM     16  C   UNL     1      18.434 -13.222 -24.101  1.00  0.00     0.123 A 
ATOM     17  C   UNL     1      19.802 -13.150 -23.855  1.00  0.00     0.043 A 
ATOM     18  H   UNL     1      16.092 -10.437 -21.494  1.00  0.00     0.166 HD
ATOM     19  H   UNL     1      14.655  -8.838 -25.025  1.00  0.00     0.174 HD
ENDROOT
TORSDOF 0
ENDMDL
MODEL 9
REMARK VINA RESULT:    -6.004      4.089      5.837
REMARK INTER + INTRA:          -6.004
REMARK INTER:                  -6.004
REMARK INTRA:                   0.000
REMARK UNBOUND:                 0.000
REMARK SMILES O=C1NC(=O)[C@@]2(CCOc3ccc(F)cc32)N1
REMARK SMILES IDX 14 1 9 2 5 3 1 4 17 5 3 6 6 7 7 8 16 9 4 10 8 11 10 12 2 13
REMARK SMILES IDX 15 14 11 15 13 16 12 17
REMARK H PARENT 17 18 3 19
REMARK Flexibility Score: inf
ROOT
ATOM      1  F   UNL     1      22.567  -9.374 -24.234  1.00  0.00    -0.207 F 
ATOM      2  O   UNL     1      17.427 -10.688 -22.796  1.00  0.00    -0.493 OA
ATOM      3  O   UNL     1      18.319  -7.034 -21.245  1.00  0.00    -0.271 OA
ATOM      4  O   UNL     1      18.217  -4.793 -25.241  1.00  0.00    -0.248 OA
ATOM      5  N   UNL     1      17.974  -7.054 -24.705  1.00  0.00    -0.319 N 
ATOM      6  N   UNL     1      18.298  -5.593 -23.060  1.00  0.00    -0.276 N 
ATOM      7  C   UNL     1      17.944  -7.890 -23.514  1.00  0.00     0.153 C 
ATOM      8  C   UNL     1      16.540  -8.480 -23.341  1.00  0.00     0.085 C 
ATOM      9  C   UNL     1      19.005  -8.964 -23.519  1.00  0.00     0.032 A 
ATOM     10  C   UNL     1      18.210  -6.819 -22.446  1.00  0.00     0.258 C 
ATOM     11  C   UNL     1      16.574  -9.632 -22.349  1.00  0.00     0.233 C 
ATOM     12  C   UNL     1      18.685 -10.284 -23.164  1.00  0.00     0.125 A 
ATOM     13  C   UNL     1      18.166  -5.702 -24.424  1.00  0.00     0.322 C 
ATOM     14  C   UNL     1      20.334  -8.671 -23.869  1.00  0.00     0.049 A 
ATOM     15  C   UNL     1      19.657 -11.289 -23.204  1.00  0.00     0.050 A 
ATOM     16  C   UNL     1      21.306  -9.673 -23.892  1.00  0.00     0.123 A 
ATOM     17  C   UNL     1      20.966 -10.982 -23.564  1.00  0.00     0.043 A 
ATOM     18  H   UNL     1      17.863  -7.415 -25.648  1.00  0.00     0.166 HD
ATOM     19  H   UNL     1      18.462  -4.721 -22.570  1.00  0.00     0.174 HD
ENDROOT
TORSDOF 0
ENDMDL
