REMARK  7 active torsions:
REMARK  status: ('A' for Active; 'I' for Inactive)
REMARK    1  A    between atoms: C1_1  and  C12_9 
REMARK    2  A    between atoms: C3_3  and  C10_7 
REMARK    3  A    between atoms: C5_5  and  C11_8 
REMARK    4  A    between atoms: C29_16  and  C44_25 
REMARK    5  A    between atoms: C40_23  and  N48_26 
REMARK    6  A    between atoms: N48_26  and  C49_27 
REMARK    7  A    between atoms: C49_27  and  C54_29 
ROOT
HETATM    1  C1  084 A 501      44.946  33.466  31.869  1.00 40.81     0.095 A 
HETATM    2  N2  084 A 501      46.034  32.616  32.019  1.00 40.63    -0.335 N 
HETATM    3  C3  084 A 501      45.483  31.367  31.875  1.00 37.36     0.111 A 
HETATM    4  N4  084 A 501      44.147  31.330  31.638  1.00 39.91    -0.232 NA
HETATM    5  C5  084 A 501      43.764  32.632  31.623  1.00 42.64     0.098 A 
HETATM    6  C6  084 A 501      47.442  33.002  32.286  1.00 38.77     0.158 C 
ENDROOT
BRANCH   1   7
HETATM    7  C12 084 A 501      45.027  34.976  31.961  1.00 40.08     0.106 A 
HETATM    8  N41 084 A 501      45.962  35.663  31.203  1.00 43.34    -0.061 NA
HETATM    9  C40 084 A 501      46.084  37.021  31.270  1.00 42.69     0.723 A 
HETATM   10  N39 084 A 501      45.300  37.798  32.079  1.00 41.32    -0.075 NA
HETATM   11  C38 084 A 501      44.360  37.126  32.839  1.00 39.79     0.139 A 
HETATM   12  C37 084 A 501      44.173  35.718  32.829  1.00 39.24     0.054 A 
BRANCH   9  13
HETATM   13  N48 084 A 501      47.072  37.594  30.450  1.00 43.76    -0.214 N 
HETATM   14  H20 084 A 501      47.018  38.599  30.363  1.00 43.76     0.178 HD
BRANCH  13  15
HETATM   15  C49 084 A 501      48.205  36.951  29.676  1.00 45.24     0.128 C 
HETATM   16  C50 084 A 501      48.866  37.881  28.994  1.00 44.68     0.038 C 
BRANCH  15  17
HETATM   17  C54 084 A 501      49.127  36.078  30.623  1.00 46.19    -0.035 A 
HETATM   18  C56 084 A 501      49.794  34.883  30.134  1.00 47.40     0.009 A 
HETATM   19  C57 084 A 501      50.637  34.092  30.996  1.00 46.72     0.001 A 
HETATM   20  C58 084 A 501      50.830  34.478  32.366  1.00 47.30     0.000 A 
HETATM   21  C59 084 A 501      50.188  35.649  32.885  1.00 46.02     0.001 A 
HETATM   22  C60 084 A 501      49.352  36.439  32.027  1.00 47.67     0.009 A 
ENDBRANCH  15  17
ENDBRANCH  13  15
ENDBRANCH   9  13
ENDBRANCH   1   7
BRANCH   5  23
HETATM   23  C11 084 A 501      42.356  33.067  31.388  1.00 45.76    -0.004 A 
HETATM   24  C28 084 A 501      41.331  32.607  32.254  1.00 45.56     0.030 A 
HETATM   25  C29 084 A 501      39.960  33.011  32.059  1.00 46.47     0.048 A 
HETATM   26  C30 084 A 501      39.645  33.910  30.937  1.00 47.38     0.016 A 
HETATM   27  C31 084 A 501      40.670  34.374  30.062  1.00 46.18     0.002 A 
HETATM   28  C32 084 A 501      42.004  33.957  30.287  1.00 45.99     0.014 A 
BRANCH  25  29
HETATM   29  C44 084 A 501      38.866  32.500  33.008  1.00 46.68     0.417 C 
HETATM   30  F45 084 A 501      38.589  31.276  32.664  1.00 45.02    -0.166 F 
HETATM   31  F46 084 A 501      37.814  33.257  32.865  1.00 47.97    -0.166 F 
HETATM   32  F47 084 A 501      39.228  32.531  34.278  1.00 48.16    -0.166 F 
ENDBRANCH  25  29
ENDBRANCH   5  23
BRANCH   3  33
HETATM   33  C10 084 A 501      46.347  30.017  31.990  1.00 36.34     0.059 C 
HETATM   34  C13 084 A 501      46.795  29.536  33.431  1.00 38.71     0.042 C 
HETATM   35  C14 084 A 501      47.595  28.199  33.422  1.00 39.69     0.270 C 
HETATM   36  N15 084 A 501      46.865  27.112  32.676  1.00 39.87     0.083 N 
HETATM   37  C16 084 A 501      46.421  27.516  31.287  1.00 35.73     0.270 C 
HETATM   38  H09 084 A 501      47.478  26.313  32.595  1.00 39.87     0.315 HD
HETATM   39  C17 084 A 501      45.585  28.831  31.294  1.00 36.16     0.042 C 
ENDBRANCH   3  33
TORSDOF 7
