MODEL 1
REMARK VINA RESULT:    -8.667      0.000      0.000
REMARK INTER + INTRA:         -13.473
REMARK INTER:                 -12.721
REMARK INTRA:                  -0.752
REMARK UNBOUND:                -0.752
REMARK  10 active torsions:
REMARK  status: ('A' for Active; 'I' for Inactive)
REMARK    1  A    between atoms: O_3  and  C_18 
REMARK    2  A    between atoms: O_4  and  C_21 
REMARK    3  A    between atoms: O_6  and  C_20 
REMARK    4  A    between atoms: O_7  and  C_23 
REMARK    5  A    between atoms: O_8  and  C_25 
REMARK    6  A    between atoms: O_9  and  C_26 
REMARK    7  A    between atoms: O_9  and  C_27 
REMARK    8  A    between atoms: N_13  and  C_31 
REMARK    9  A    between atoms: C_22  and  C_26 
REMARK   10  A    between atoms: C_27  and  C_28 
ROOT
ATOM      1  O   *** d   1      43.616  33.858  30.758  0.00  0.00    -0.306 OA
ATOM      2  O   *** d   1      45.034  31.056  32.651  0.00  0.00    -0.368 OA
ATOM      3  O   *** d   1      41.475  34.512  30.440  0.00  0.00    -0.259 OA
ATOM      4  C   *** d   1      42.745  31.909  32.613  0.00  0.00     0.026 A 
ATOM      5  C   *** d   1      44.216  32.209  32.450  0.00  0.00     0.191 C 
ATOM      6  C   *** d   1      44.438  32.707  31.020  0.00  0.00     0.197 C 
ATOM      7  C   *** d   1      41.828  32.635  31.839  0.00  0.00     0.054 A 
ATOM      8  C   *** d   1      42.230  31.006  33.549  0.00  0.00     0.111 A 
ATOM      9  C   *** d   1      42.278  33.735  30.938  0.00  0.00     0.294 C 
ATOM     10  C   *** d   1      45.916  33.073  30.840  0.00  0.00     0.181 C 
ATOM     11  C   *** d   1      40.849  30.746  33.672  0.00  0.00     0.135 A 
ATOM     12  C   *** d   1      46.430  31.372  32.639  0.00  0.00     0.178 C 
ATOM     13  C   *** d   1      46.835  31.916  31.259  0.00  0.00     0.180 C 
ATOM     14  C   *** d   1      40.449  32.398  31.950  0.00  0.00     0.057 A 
ATOM     15  C   *** d   1      39.964  31.448  32.852  0.00  0.00     0.102 A 
ENDROOT
BRANCH  12  16
ATOM     16  C   *** d   1      47.205  30.097  33.003  0.00  0.00     0.213 C 
BRANCH  16  17
ATOM     17  O   *** d   1      46.392  28.940  32.755  0.00  0.00    -0.315 OA
BRANCH  17  18
ATOM     18  C   *** d   1      46.803  28.190  31.699  0.00  0.00     0.293 C 
ATOM     19  O   *** d   1      47.046  28.612  30.581  0.00  0.00    -0.259 OA
BRANCH  18  20
ATOM     20  C   *** d   1      46.947  26.764  32.096  0.00  0.00     0.041 A 
ATOM     21  C   *** d   1      47.786  26.462  33.178  0.00  0.00     0.046 A 
ATOM     22  C   *** d   1      47.963  25.138  33.599  0.00  0.00     0.073 A 
ATOM     23  C   *** d   1      47.289  24.113  32.923  0.00  0.00     0.028 A 
ATOM     24  C   *** d   1      46.457  24.405  31.841  0.00  0.00     0.003 A 
ATOM     25  C   *** d   1      46.286  25.727  31.425  0.00  0.00     0.018 A 
BRANCH  22  26
ATOM     26  N   *** d   1      48.869  24.867  34.760  0.00  0.00     0.035 NA
ATOM     27  O   *** d   1      50.316  24.797  34.332  0.00  0.00    -0.084 OA
ATOM     28  O   *** d   1      48.695  25.896  35.852  0.00  0.00    -0.084 OA
ENDBRANCH  22  26
ENDBRANCH  18  20
ENDBRANCH  17  18
ENDBRANCH  16  17
ENDBRANCH  12  16
BRANCH  13  29
ATOM     29  O   *** d   1      48.183  32.404  31.232  0.00  0.00    -0.390 OA
ATOM     30  H   *** d   1      48.168  33.301  31.620  0.00  0.00     0.210 HD
ENDBRANCH  13  29
BRANCH  10  31
ATOM     31  O   *** d   1      46.188  33.391  29.465  0.00  0.00    -0.390 OA
ATOM     32  H   *** d   1      45.906  34.320  29.354  0.00  0.00     0.210 HD
ENDBRANCH  10  31
BRANCH   8  33
ATOM     33  O   *** d   1      43.086  30.363  34.409  0.00  0.00    -0.357 OA
ATOM     34  H   *** d   1      42.921  30.762  35.286  0.00  0.00     0.217 HD
ENDBRANCH   8  33
BRANCH  11  35
ATOM     35  O   *** d   1      40.563  29.810  34.635  0.00  0.00    -0.351 OA
ATOM     36  C   *** d   1      40.054  30.263  35.882  0.00  0.00     0.210 C 
ENDBRANCH  11  35
BRANCH  15  37
ATOM     37  O   *** d   1      38.612  31.255  32.923  0.00  0.00    -0.358 OA
ATOM     38  H   *** d   1      38.259  31.085  32.033  0.00  0.00     0.217 HD
ENDBRANCH  15  37
TORSDOF 10
ENDMDL
MODEL 2
REMARK VINA RESULT:    -8.647      2.737      7.327
REMARK INTER + INTRA:         -13.443
REMARK INTER:                 -12.502
REMARK INTRA:                  -0.942
REMARK UNBOUND:                -0.752
REMARK  10 active torsions:
REMARK  status: ('A' for Active; 'I' for Inactive)
REMARK    1  A    between atoms: O_3  and  C_18 
REMARK    2  A    between atoms: O_4  and  C_21 
REMARK    3  A    between atoms: O_6  and  C_20 
REMARK    4  A    between atoms: O_7  and  C_23 
REMARK    5  A    between atoms: O_8  and  C_25 
REMARK    6  A    between atoms: O_9  and  C_26 
REMARK    7  A    between atoms: O_9  and  C_27 
REMARK    8  A    between atoms: N_13  and  C_31 
REMARK    9  A    between atoms: C_22  and  C_26 
REMARK   10  A    between atoms: C_27  and  C_28 
ROOT
ATOM      1  O   *** d   1      49.269  34.094  31.768  0.00  0.00    -0.306 OA
ATOM      2  O   *** d   1      45.656  33.780  32.313  0.00  0.00    -0.368 OA
ATOM      3  O   *** d   1      50.926  32.557  31.831  0.00  0.00    -0.259 OA
ATOM      4  C   *** d   1      47.351  32.037  32.066  0.00  0.00     0.026 A 
ATOM      5  C   *** d   1      46.919  33.446  31.736  0.00  0.00     0.191 C 
ATOM      6  C   *** d   1      47.969  34.404  32.302  0.00  0.00     0.197 C 
ATOM      7  C   *** d   1      48.722  31.775  32.199  0.00  0.00     0.054 A 
ATOM      8  C   *** d   1      46.472  30.953  32.170  0.00  0.00     0.111 A 
ATOM      9  C   *** d   1      49.740  32.834  31.939  0.00  0.00     0.294 C 
ATOM     10  C   *** d   1      47.587  35.842  31.934  0.00  0.00     0.181 C 
ATOM     11  C   *** d   1      46.909  29.650  32.484  0.00  0.00     0.135 A 
ATOM     12  C   *** d   1      45.183  35.059  31.881  0.00  0.00     0.178 C 
ATOM     13  C   *** d   1      46.144  36.163  32.352  0.00  0.00     0.180 C 
ATOM     14  C   *** d   1      49.180  30.484  32.505  0.00  0.00     0.057 A 
ATOM     15  C   *** d   1      48.276  29.430  32.660  0.00  0.00     0.102 A 
ENDROOT
BRANCH  12  16
ATOM     16  C   *** d   1      43.767  35.253  32.443  0.00  0.00     0.213 C 
BRANCH  16  17
ATOM     17  O   *** d   1      43.152  33.976  32.674  0.00  0.00    -0.315 OA
BRANCH  17  18
ATOM     18  C   *** d   1      42.183  33.658  31.775  0.00  0.00     0.293 C 
ATOM     19  O   *** d   1      42.152  34.014  30.610  0.00  0.00    -0.259 OA
BRANCH  18  20
ATOM     20  C   *** d   1      41.160  32.777  32.400  0.00  0.00     0.041 A 
ATOM     21  C   *** d   1      41.595  31.806  33.312  0.00  0.00     0.046 A 
ATOM     22  C   *** d   1      40.679  30.947  33.934  0.00  0.00     0.073 A 
ATOM     23  C   *** d   1      39.317  31.069  33.631  0.00  0.00     0.028 A 
ATOM     24  C   *** d   1      38.878  32.031  32.719  0.00  0.00     0.003 A 
ATOM     25  C   *** d   1      39.795  32.883  32.102  0.00  0.00     0.018 A 
BRANCH  22  26
ATOM     26  N   *** d   1      41.192  29.926  34.901  0.00  0.00     0.035 NA
ATOM     27  O   *** d   1      40.422  29.954  36.201  0.00  0.00    -0.084 OA
ATOM     28  O   *** d   1      41.169  28.538  34.308  0.00  0.00    -0.084 OA
ENDBRANCH  22  26
ENDBRANCH  18  20
ENDBRANCH  17  18
ENDBRANCH  16  17
ENDBRANCH  12  16
BRANCH  13  29
ATOM     29  O   *** d   1      45.814  37.450  31.812  0.00  0.00    -0.390 OA
ATOM     30  H   *** d   1      46.378  38.104  32.271  0.00  0.00     0.210 HD
ENDBRANCH  13  29
BRANCH  10  31
ATOM     31  O   *** d   1      48.464  36.775  32.586  0.00  0.00    -0.390 OA
ATOM     32  H   *** d   1      49.290  36.280  32.753  0.00  0.00     0.210 HD
ENDBRANCH  10  31
BRANCH   8  33
ATOM     33  O   *** d   1      45.133  31.144  31.929  0.00  0.00    -0.357 OA
ATOM     34  H   *** d   1      44.744  31.369  32.797  0.00  0.00     0.217 HD
ENDBRANCH   8  33
BRANCH  11  35
ATOM     35  O   *** d   1      45.881  28.743  32.560  0.00  0.00    -0.351 OA
ATOM     36  C   *** d   1      45.709  27.832  31.483  0.00  0.00     0.210 C 
ENDBRANCH  11  35
BRANCH  15  37
ATOM     37  O   *** d   1      48.772  28.192  32.958  0.00  0.00    -0.358 OA
ATOM     38  H   *** d   1      49.743  28.230  33.003  0.00  0.00     0.217 HD
ENDBRANCH  15  37
TORSDOF 10
ENDMDL
MODEL 3
REMARK VINA RESULT:    -8.611      3.173      7.449
REMARK INTER + INTRA:         -13.390
REMARK INTER:                 -12.269
REMARK INTRA:                  -1.120
REMARK UNBOUND:                -0.752
REMARK  10 active torsions:
REMARK  status: ('A' for Active; 'I' for Inactive)
REMARK    1  A    between atoms: O_3  and  C_18 
REMARK    2  A    between atoms: O_4  and  C_21 
REMARK    3  A    between atoms: O_6  and  C_20 
REMARK    4  A    between atoms: O_7  and  C_23 
REMARK    5  A    between atoms: O_8  and  C_25 
REMARK    6  A    between atoms: O_9  and  C_26 
REMARK    7  A    between atoms: O_9  and  C_27 
REMARK    8  A    between atoms: N_13  and  C_31 
REMARK    9  A    between atoms: C_22  and  C_26 
REMARK   10  A    between atoms: C_27  and  C_28 
ROOT
ATOM      1  O   *** d   1      50.223  32.086  32.434  0.00  0.00    -0.306 OA
ATOM      2  O   *** d   1      46.997  33.825  32.559  0.00  0.00    -0.368 OA
ATOM      3  O   *** d   1      50.736  29.885  32.516  0.00  0.00    -0.259 OA
ATOM      4  C   *** d   1      47.472  31.441  32.317  0.00  0.00     0.026 A 
ATOM      5  C   *** d   1      47.937  32.858  32.088  0.00  0.00     0.191 C 
ATOM      6  C   *** d   1      49.246  33.054  32.855  0.00  0.00     0.197 C 
ATOM      7  C   *** d   1      48.438  30.455  32.568  0.00  0.00     0.054 A 
ATOM      8  C   *** d   1      46.138  31.028  32.218  0.00  0.00     0.111 A 
ATOM      9  C   *** d   1      49.895  30.773  32.525  0.00  0.00     0.294 C 
ATOM     10  C   *** d   1      49.774  34.470  32.597  0.00  0.00     0.181 C 
ATOM     11  C   *** d   1      45.738  29.696  32.444  0.00  0.00     0.135 A 
ATOM     12  C   *** d   1      47.372  35.162  32.210  0.00  0.00     0.178 C 
ATOM     13  C   *** d   1      48.701  35.530  32.890  0.00  0.00     0.180 C 
ATOM     14  C   *** d   1      48.063  29.121  32.789  0.00  0.00     0.057 A 
ATOM     15  C   *** d   1      46.718  28.746  32.741  0.00  0.00     0.102 A 
ENDROOT
BRANCH  12  16
ATOM     16  C   *** d   1      46.231  36.097  32.636  0.00  0.00     0.213 C 
BRANCH  16  17
ATOM     17  O   *** d   1      44.994  35.660  32.053  0.00  0.00    -0.315 OA
BRANCH  17  18
ATOM     18  C   *** d   1      43.989  35.487  32.951  0.00  0.00     0.293 C 
ATOM     19  O   *** d   1      43.860  36.098  33.999  0.00  0.00    -0.259 OA
BRANCH  18  20
ATOM     20  C   *** d   1      43.031  34.456  32.471  0.00  0.00     0.041 A 
ATOM     21  C   *** d   1      42.403  33.644  33.426  0.00  0.00     0.046 A 
ATOM     22  C   *** d   1      41.490  32.655  33.035  0.00  0.00     0.073 A 
ATOM     23  C   *** d   1      41.211  32.486  31.673  0.00  0.00     0.028 A 
ATOM     24  C   *** d   1      41.837  33.287  30.717  0.00  0.00     0.003 A 
ATOM     25  C   *** d   1      42.746  34.270  31.112  0.00  0.00     0.018 A 
BRANCH  22  26
ATOM     26  N   *** d   1      40.847  31.813  34.093  0.00  0.00     0.035 NA
ATOM     27  O   *** d   1      40.247  30.554  33.513  0.00  0.00    -0.084 OA
ATOM     28  O   *** d   1      41.817  31.471  35.197  0.00  0.00    -0.084 OA
ENDBRANCH  22  26
ENDBRANCH  18  20
ENDBRANCH  17  18
ENDBRANCH  16  17
ENDBRANCH  12  16
BRANCH  13  29
ATOM     29  O   *** d   1      49.213  36.795  32.451  0.00  0.00    -0.390 OA
ATOM     30  H   *** d   1      48.452  37.310  32.118  0.00  0.00     0.210 HD
ENDBRANCH  13  29
BRANCH  10  31
ATOM     31  O   *** d   1      50.914  34.738  33.429  0.00  0.00    -0.390 OA
ATOM     32  H   *** d   1      50.691  35.554  33.919  0.00  0.00     0.210 HD
ENDBRANCH  10  31
BRANCH   8  33
ATOM     33  O   *** d   1      45.176  31.939  31.857  0.00  0.00    -0.357 OA
ATOM     34  H   *** d   1      45.173  32.609  32.570  0.00  0.00     0.217 HD
ENDBRANCH   8  33
BRANCH  11  35
ATOM     35  O   *** d   1      44.383  29.513  32.318  0.00  0.00    -0.351 OA
ATOM     36  C   *** d   1      43.891  28.945  31.112  0.00  0.00     0.210 C 
ENDBRANCH  11  35
BRANCH  15  37
ATOM     37  O   *** d   1      46.404  27.435  32.962  0.00  0.00    -0.358 OA
ATOM     38  H   *** d   1      47.115  26.866  32.622  0.00  0.00     0.217 HD
ENDBRANCH  15  37
TORSDOF 10
ENDMDL
MODEL 4
REMARK VINA RESULT:    -8.563      2.833      7.458
REMARK INTER + INTRA:         -13.319
REMARK INTER:                 -12.407
REMARK INTRA:                  -0.913
REMARK UNBOUND:                -0.752
REMARK  10 active torsions:
REMARK  status: ('A' for Active; 'I' for Inactive)
REMARK    1  A    between atoms: O_3  and  C_18 
REMARK    2  A    between atoms: O_4  and  C_21 
REMARK    3  A    between atoms: O_6  and  C_20 
REMARK    4  A    between atoms: O_7  and  C_23 
REMARK    5  A    between atoms: O_8  and  C_25 
REMARK    6  A    between atoms: O_9  and  C_26 
REMARK    7  A    between atoms: O_9  and  C_27 
REMARK    8  A    between atoms: N_13  and  C_31 
REMARK    9  A    between atoms: C_22  and  C_26 
REMARK   10  A    between atoms: C_27  and  C_28 
ROOT
ATOM      1  O   *** d   1      49.059  34.282  31.482  0.00  0.00    -0.306 OA
ATOM      2  O   *** d   1      45.471  33.538  31.342  0.00  0.00    -0.368 OA
ATOM      3  O   *** d   1      50.863  32.921  31.544  0.00  0.00    -0.259 OA
ATOM      4  C   *** d   1      47.383  32.041  31.073  0.00  0.00     0.026 A 
ATOM      5  C   *** d   1      46.836  33.442  30.936  0.00  0.00     0.191 C 
ATOM      6  C   *** d   1      47.666  34.360  31.835  0.00  0.00     0.197 C 
ATOM      7  C   *** d   1      48.741  31.884  31.386  0.00  0.00     0.054 A 
ATOM      8  C   *** d   1      46.637  30.882  30.829  0.00  0.00     0.111 A 
ATOM      9  C   *** d   1      49.649  33.061  31.498  0.00  0.00     0.294 C 
ATOM     10  C   *** d   1      47.171  35.802  31.675  0.00  0.00     0.181 C 
ATOM     11  C   *** d   1      47.177  29.588  30.971  0.00  0.00     0.135 A 
ATOM     12  C   *** d   1      44.914  34.829  31.076  0.00  0.00     0.178 C 
ATOM     13  C   *** d   1      45.654  35.901  31.895  0.00  0.00     0.180 C 
ATOM     14  C   *** d   1      49.302  30.605  31.527  0.00  0.00     0.057 A 
ATOM     15  C   *** d   1      48.520  29.463  31.333  0.00  0.00     0.102 A 
ENDROOT
BRANCH  12  16
ATOM     16  C   *** d   1      43.418  34.778  31.416  0.00  0.00     0.213 C 
BRANCH  16  17
ATOM     17  O   *** d   1      42.809  33.641  30.785  0.00  0.00    -0.315 OA
BRANCH  17  18
ATOM     18  C   *** d   1      41.476  33.779  30.563  0.00  0.00     0.293 C 
ATOM     19  O   *** d   1      40.969  34.462  29.689  0.00  0.00    -0.259 OA
BRANCH  18  20
ATOM     20  C   *** d   1      40.698  32.951  31.523  0.00  0.00     0.041 A 
ATOM     21  C   *** d   1      41.360  31.901  32.175  0.00  0.00     0.046 A 
ATOM     22  C   *** d   1      40.681  31.086  33.091  0.00  0.00     0.073 A 
ATOM     23  C   *** d   1      39.326  31.333  33.349  0.00  0.00     0.028 A 
ATOM     24  C   *** d   1      38.660  32.374  32.699  0.00  0.00     0.003 A 
ATOM     25  C   *** d   1      39.341  33.181  31.786  0.00  0.00     0.018 A 
BRANCH  22  26
ATOM     26  N   *** d   1      41.431  29.978  33.761  0.00  0.00     0.035 NA
ATOM     27  O   *** d   1      42.619  29.534  32.939  0.00  0.00    -0.084 OA
ATOM     28  O   *** d   1      41.873  30.368  35.151  0.00  0.00    -0.084 OA
ENDBRANCH  22  26
ENDBRANCH  18  20
ENDBRANCH  17  18
ENDBRANCH  16  17
ENDBRANCH  12  16
BRANCH  13  29
ATOM     29  O   *** d   1      45.253  37.233  31.549  0.00  0.00    -0.390 OA
ATOM     30  H   *** d   1      46.035  37.806  31.674  0.00  0.00     0.210 HD
ENDBRANCH  13  29
BRANCH  10  31
ATOM     31  O   *** d   1      47.821  36.663  32.624  0.00  0.00    -0.390 OA
ATOM     32  H   *** d   1      47.293  37.484  32.634  0.00  0.00     0.210 HD
ENDBRANCH  10  31
BRANCH   8  33
ATOM     33  O   *** d   1      45.335  30.995  30.404  0.00  0.00    -0.357 OA
ATOM     34  H   *** d   1      44.789  30.722  31.168  0.00  0.00     0.217 HD
ENDBRANCH   8  33
BRANCH  11  35
ATOM     35  O   *** d   1      46.268  28.594  30.707  0.00  0.00    -0.351 OA
ATOM     36  C   *** d   1      45.688  27.905  31.806  0.00  0.00     0.210 C 
ENDBRANCH  11  35
BRANCH  15  37
ATOM     37  O   *** d   1      49.114  28.241  31.481  0.00  0.00    -0.358 OA
ATOM     38  H   *** d   1      48.800  27.821  32.299  0.00  0.00     0.217 HD
ENDBRANCH  15  37
TORSDOF 10
ENDMDL
MODEL 5
REMARK VINA RESULT:    -8.515      1.911      2.546
REMARK INTER + INTRA:         -13.249
REMARK INTER:                 -12.313
REMARK INTRA:                  -0.937
REMARK UNBOUND:                -0.752
REMARK  10 active torsions:
REMARK  status: ('A' for Active; 'I' for Inactive)
REMARK    1  A    between atoms: O_3  and  C_18 
REMARK    2  A    between atoms: O_4  and  C_21 
REMARK    3  A    between atoms: O_6  and  C_20 
REMARK    4  A    between atoms: O_7  and  C_23 
REMARK    5  A    between atoms: O_8  and  C_25 
REMARK    6  A    between atoms: O_9  and  C_26 
REMARK    7  A    between atoms: O_9  and  C_27 
REMARK    8  A    between atoms: N_13  and  C_31 
REMARK    9  A    between atoms: C_22  and  C_26 
REMARK   10  A    between atoms: C_27  and  C_28 
ROOT
ATOM      1  O   *** d   1      45.670  32.877  30.789  0.00  0.00    -0.306 OA
ATOM      2  O   *** d   1      44.789  29.454  31.763  0.00  0.00    -0.368 OA
ATOM      3  O   *** d   1      44.419  34.754  30.635  0.00  0.00    -0.259 OA
ATOM      4  C   *** d   1      43.476  31.508  31.932  0.00  0.00     0.026 A 
ATOM      5  C   *** d   1      44.846  30.873  31.905  0.00  0.00     0.191 C 
ATOM      6  C   *** d   1      45.605  31.442  30.705  0.00  0.00     0.197 C 
ATOM      7  C   *** d   1      43.328  32.795  31.396  0.00  0.00     0.054 A 
ATOM      8  C   *** d   1      42.354  30.924  32.532  0.00  0.00     0.111 A 
ATOM      9  C   *** d   1      44.503  33.560  30.889  0.00  0.00     0.294 C 
ATOM     10  C   *** d   1      47.022  30.858  30.682  0.00  0.00     0.181 C 
ATOM     11  C   *** d   1      41.088  31.542  32.534  0.00  0.00     0.135 A 
ATOM     12  C   *** d   1      46.077  28.843  31.883  0.00  0.00     0.178 C 
ATOM     13  C   *** d   1      46.996  29.324  30.748  0.00  0.00     0.180 C 
ATOM     14  C   *** d   1      42.077  33.433  31.394  0.00  0.00     0.057 A 
ATOM     15  C   *** d   1      40.961  32.803  31.948  0.00  0.00     0.102 A 
ENDROOT
BRANCH  12  16
ATOM     16  C   *** d   1      45.881  27.320  31.857  0.00  0.00     0.213 C 
BRANCH  16  17
ATOM     17  O   *** d   1      47.129  26.660  32.117  0.00  0.00    -0.315 OA
BRANCH  17  18
ATOM     18  C   *** d   1      47.399  25.632  31.270  0.00  0.00     0.293 C 
ATOM     19  O   *** d   1      48.129  25.689  30.295  0.00  0.00    -0.259 OA
BRANCH  18  20
ATOM     20  C   *** d   1      46.699  24.395  31.709  0.00  0.00     0.041 A 
ATOM     21  C   *** d   1      46.728  24.070  33.072  0.00  0.00     0.046 A 
ATOM     22  C   *** d   1      46.087  22.918  33.547  0.00  0.00     0.073 A 
ATOM     23  C   *** d   1      45.415  22.090  32.639  0.00  0.00     0.028 A 
ATOM     24  C   *** d   1      45.387  22.405  31.279  0.00  0.00     0.003 A 
ATOM     25  C   *** d   1      46.028  23.553  30.813  0.00  0.00     0.018 A 
BRANCH  22  26
ATOM     26  N   *** d   1      46.147  22.614  35.011  0.00  0.00     0.035 NA
ATOM     27  O   *** d   1      47.299  23.326  35.681  0.00  0.00    -0.084 OA
ATOM     28  O   *** d   1      44.848  22.953  35.702  0.00  0.00    -0.084 OA
ENDBRANCH  22  26
ENDBRANCH  18  20
ENDBRANCH  17  18
ENDBRANCH  16  17
ENDBRANCH  12  16
BRANCH  13  29
ATOM     29  O   *** d   1      48.349  28.876  30.907  0.00  0.00    -0.390 OA
ATOM     30  H   *** d   1      48.408  27.995  30.488  0.00  0.00     0.210 HD
ENDBRANCH  13  29
BRANCH  10  31
ATOM     31  O   *** d   1      47.704  31.248  29.480  0.00  0.00    -0.390 OA
ATOM     32  H   *** d   1      48.590  31.542  29.769  0.00  0.00     0.210 HD
ENDBRANCH  10  31
BRANCH   8  33
ATOM     33  O   *** d   1      42.484  29.716  33.173  0.00  0.00    -0.357 OA
ATOM     34  H   *** d   1      42.504  29.046  32.461  0.00  0.00     0.217 HD
ENDBRANCH   8  33
BRANCH  11  35
ATOM     35  O   *** d   1      40.123  30.787  33.154  0.00  0.00    -0.351 OA
ATOM     36  C   *** d   1      39.661  31.205  34.432  0.00  0.00     0.210 C 
ENDBRANCH  11  35
BRANCH  15  37
ATOM     37  O   *** d   1      39.765  33.466  31.922  0.00  0.00    -0.358 OA
ATOM     38  H   *** d   1      39.839  34.252  31.354  0.00  0.00     0.217 HD
ENDBRANCH  15  37
TORSDOF 10
ENDMDL
MODEL 6
REMARK VINA RESULT:    -8.445      2.855      3.641
REMARK INTER + INTRA:         -13.146
REMARK INTER:                 -12.255
REMARK INTRA:                  -0.891
REMARK UNBOUND:                -0.752
REMARK  10 active torsions:
REMARK  status: ('A' for Active; 'I' for Inactive)
REMARK    1  A    between atoms: O_3  and  C_18 
REMARK    2  A    between atoms: O_4  and  C_21 
REMARK    3  A    between atoms: O_6  and  C_20 
REMARK    4  A    between atoms: O_7  and  C_23 
REMARK    5  A    between atoms: O_8  and  C_25 
REMARK    6  A    between atoms: O_9  and  C_26 
REMARK    7  A    between atoms: O_9  and  C_27 
REMARK    8  A    between atoms: N_13  and  C_31 
REMARK    9  A    between atoms: C_22  and  C_26 
REMARK   10  A    between atoms: C_27  and  C_28 
ROOT
ATOM      1  O   *** d   1      45.758  32.552  30.781  0.00  0.00    -0.306 OA
ATOM      2  O   *** d   1      44.724  29.173  31.761  0.00  0.00    -0.368 OA
ATOM      3  O   *** d   1      44.601  34.491  30.665  0.00  0.00    -0.259 OA
ATOM      4  C   *** d   1      43.523  31.290  31.970  0.00  0.00     0.026 A 
ATOM      5  C   *** d   1      44.857  30.587  31.908  0.00  0.00     0.191 C 
ATOM      6  C   *** d   1      45.616  31.123  30.693  0.00  0.00     0.197 C 
ATOM      7  C   *** d   1      43.429  32.587  31.443  0.00  0.00     0.054 A 
ATOM      8  C   *** d   1      42.387  30.761  32.593  0.00  0.00     0.111 A 
ATOM      9  C   *** d   1      44.630  33.293  30.912  0.00  0.00     0.294 C 
ATOM     10  C   *** d   1      47.000  30.467  30.634  0.00  0.00     0.181 C 
ATOM     11  C   *** d   1      41.154  31.444  32.628  0.00  0.00     0.135 A 
ATOM     12  C   *** d   1      45.982  28.496  31.848  0.00  0.00     0.178 C 
ATOM     13  C   *** d   1      46.898  28.936  30.694  0.00  0.00     0.180 C 
ATOM     14  C   *** d   1      42.213  33.288  31.473  0.00  0.00     0.057 A 
ATOM     15  C   *** d   1      41.078  32.713  32.050  0.00  0.00     0.102 A 
ENDROOT
BRANCH  12  16
ATOM     16  C   *** d   1      45.707  26.986  31.820  0.00  0.00     0.213 C 
BRANCH  16  17
ATOM     17  O   *** d   1      46.919  26.261  32.083  0.00  0.00    -0.315 OA
BRANCH  17  18
ATOM     18  C   *** d   1      47.060  25.131  31.342  0.00  0.00     0.293 C 
ATOM     19  O   *** d   1      47.692  25.036  30.304  0.00  0.00    -0.259 OA
BRANCH  18  20
ATOM     20  C   *** d   1      46.353  23.992  31.987  0.00  0.00     0.041 A 
ATOM     21  C   *** d   1      45.409  23.287  31.228  0.00  0.00     0.046 A 
ATOM     22  C   *** d   1      44.711  22.204  31.780  0.00  0.00     0.073 A 
ATOM     23  C   *** d   1      44.967  21.833  33.106  0.00  0.00     0.028 A 
ATOM     24  C   *** d   1      45.903  22.534  33.869  0.00  0.00     0.003 A 
ATOM     25  C   *** d   1      46.594  23.613  33.314  0.00  0.00     0.018 A 
BRANCH  22  26
ATOM     26  N   *** d   1      43.712  21.484  30.928  0.00  0.00     0.035 NA
ATOM     27  O   *** d   1      42.295  21.787  31.355  0.00  0.00    -0.084 OA
ATOM     28  O   *** d   1      43.898  21.803  29.464  0.00  0.00    -0.084 OA
ENDBRANCH  22  26
ENDBRANCH  18  20
ENDBRANCH  17  18
ENDBRANCH  16  17
ENDBRANCH  12  16
BRANCH  13  29
ATOM     29  O   *** d   1      48.229  28.418  30.819  0.00  0.00    -0.390 OA
ATOM     30  H   *** d   1      48.272  27.948  31.675  0.00  0.00     0.210 HD
ENDBRANCH  13  29
BRANCH  10  31
ATOM     31  O   *** d   1      47.674  30.828  29.418  0.00  0.00    -0.390 OA
ATOM     32  H   *** d   1      47.162  31.575  29.050  0.00  0.00     0.210 HD
ENDBRANCH  10  31
BRANCH   8  33
ATOM     33  O   *** d   1      42.469  29.545  33.226  0.00  0.00    -0.357 OA
ATOM     34  H   *** d   1      42.064  28.904  32.608  0.00  0.00     0.217 HD
ENDBRANCH   8  33
BRANCH  11  35
ATOM     35  O   *** d   1      40.166  30.736  33.267  0.00  0.00    -0.351 OA
ATOM     36  C   *** d   1      39.751  31.175  34.553  0.00  0.00     0.210 C 
ENDBRANCH  11  35
BRANCH  15  37
ATOM     37  O   *** d   1      39.918  33.436  32.055  0.00  0.00    -0.358 OA
ATOM     38  H   *** d   1      40.125  34.385  32.105  0.00  0.00     0.217 HD
ENDBRANCH  15  37
TORSDOF 10
ENDMDL
MODEL 7
REMARK VINA RESULT:    -8.266      3.452      8.250
REMARK INTER + INTRA:         -12.884
REMARK INTER:                 -12.085
REMARK INTRA:                  -0.799
REMARK UNBOUND:                -0.752
REMARK  10 active torsions:
REMARK  status: ('A' for Active; 'I' for Inactive)
REMARK    1  A    between atoms: O_3  and  C_18 
REMARK    2  A    between atoms: O_4  and  C_21 
REMARK    3  A    between atoms: O_6  and  C_20 
REMARK    4  A    between atoms: O_7  and  C_23 
REMARK    5  A    between atoms: O_8  and  C_25 
REMARK    6  A    between atoms: O_9  and  C_26 
REMARK    7  A    between atoms: O_9  and  C_27 
REMARK    8  A    between atoms: N_13  and  C_31 
REMARK    9  A    between atoms: C_22  and  C_26 
REMARK   10  A    between atoms: C_27  and  C_28 
ROOT
ATOM      1  O   *** d   1      49.758  34.137  31.480  0.00  0.00    -0.306 OA
ATOM      2  O   *** d   1      46.206  33.936  32.369  0.00  0.00    -0.368 OA
ATOM      3  O   *** d   1      51.391  32.573  31.496  0.00  0.00    -0.259 OA
ATOM      4  C   *** d   1      47.844  32.145  32.087  0.00  0.00     0.026 A 
ATOM      5  C   *** d   1      47.405  33.538  31.704  0.00  0.00     0.191 C 
ATOM      6  C   *** d   1      48.517  34.509  32.107  0.00  0.00     0.197 C 
ATOM      7  C   *** d   1      49.218  31.864  32.114  0.00  0.00     0.054 A 
ATOM      8  C   *** d   1      46.962  31.089  32.343  0.00  0.00     0.111 A 
ATOM      9  C   *** d   1      50.223  32.881  31.692  0.00  0.00     0.294 C 
ATOM     10  C   *** d   1      48.125  35.928  31.679  0.00  0.00     0.181 C 
ATOM     11  C   *** d   1      47.406  29.801  32.704  0.00  0.00     0.135 A 
ATOM     12  C   *** d   1      45.714  35.194  31.896  0.00  0.00     0.178 C 
ATOM     13  C   *** d   1      46.732  36.306  32.203  0.00  0.00     0.180 C 
ATOM     14  C   *** d   1      49.682  30.586  32.463  0.00  0.00     0.057 A 
ATOM     15  C   *** d   1      48.780  29.564  32.770  0.00  0.00     0.102 A 
ENDROOT
BRANCH  12  16
ATOM     16  C   *** d   1      44.359  35.454  32.569  0.00  0.00     0.213 C 
BRANCH  16  17
ATOM     17  O   *** d   1      43.777  34.213  32.997  0.00  0.00    -0.315 OA
BRANCH  17  18
ATOM     18  C   *** d   1      42.727  33.803  32.237  0.00  0.00     0.293 C 
ATOM     19  O   *** d   1      42.635  33.929  31.028  0.00  0.00    -0.259 OA
BRANCH  18  20
ATOM     20  C   *** d   1      41.697  33.144  33.082  0.00  0.00     0.041 A 
ATOM     21  C   *** d   1      40.365  33.561  32.945  0.00  0.00     0.046 A 
ATOM     22  C   *** d   1      39.349  32.978  33.713  0.00  0.00     0.073 A 
ATOM     23  C   *** d   1      39.679  31.968  34.626  0.00  0.00     0.028 A 
ATOM     24  C   *** d   1      41.004  31.552  34.772  0.00  0.00     0.003 A 
ATOM     25  C   *** d   1      42.012  32.138  34.005  0.00  0.00     0.018 A 
BRANCH  22  26
ATOM     26  N   *** d   1      37.943  33.458  33.529  0.00  0.00     0.035 NA
ATOM     27  O   *** d   1      37.437  34.180  34.756  0.00  0.00    -0.084 OA
ATOM     28  O   *** d   1      37.813  34.341  32.311  0.00  0.00    -0.084 OA
ENDBRANCH  22  26
ENDBRANCH  18  20
ENDBRANCH  17  18
ENDBRANCH  16  17
ENDBRANCH  12  16
BRANCH  13  29
ATOM     29  O   *** d   1      46.373  37.561  31.610  0.00  0.00    -0.390 OA
ATOM     30  H   *** d   1      45.397  37.599  31.595  0.00  0.00     0.210 HD
ENDBRANCH  13  29
BRANCH  10  31
ATOM     31  O   *** d   1      49.072  36.882  32.185  0.00  0.00    -0.390 OA
ATOM     32  H   *** d   1      48.689  37.758  31.985  0.00  0.00     0.210 HD
ENDBRANCH  10  31
BRANCH   8  33
ATOM     33  O   *** d   1      45.610  31.292  32.212  0.00  0.00    -0.357 OA
ATOM     34  H   *** d   1      45.497  32.263  32.168  0.00  0.00     0.217 HD
ENDBRANCH   8  33
BRANCH  11  35
ATOM     35  O   *** d   1      46.376  28.922  32.933  0.00  0.00    -0.351 OA
ATOM     36  C   *** d   1      46.096  27.943  31.942  0.00  0.00     0.210 C 
ENDBRANCH  11  35
BRANCH  15  37
ATOM     37  O   *** d   1      49.283  28.337  33.104  0.00  0.00    -0.358 OA
ATOM     38  H   *** d   1      48.948  27.666  32.485  0.00  0.00     0.217 HD
ENDBRANCH  15  37
TORSDOF 10
ENDMDL
MODEL 8
REMARK VINA RESULT:    -8.255      3.370      8.419
REMARK INTER + INTRA:         -12.867
REMARK INTER:                 -12.088
REMARK INTRA:                  -0.779
REMARK UNBOUND:                -0.752
REMARK  10 active torsions:
REMARK  status: ('A' for Active; 'I' for Inactive)
REMARK    1  A    between atoms: O_3  and  C_18 
REMARK    2  A    between atoms: O_4  and  C_21 
REMARK    3  A    between atoms: O_6  and  C_20 
REMARK    4  A    between atoms: O_7  and  C_23 
REMARK    5  A    between atoms: O_8  and  C_25 
REMARK    6  A    between atoms: O_9  and  C_26 
REMARK    7  A    between atoms: O_9  and  C_27 
REMARK    8  A    between atoms: N_13  and  C_31 
REMARK    9  A    between atoms: C_22  and  C_26 
REMARK   10  A    between atoms: C_27  and  C_28 
ROOT
ATOM      1  O   *** d   1      47.827  29.884  32.233  0.00  0.00    -0.306 OA
ATOM      2  O   *** d   1      45.788  32.873  31.634  0.00  0.00    -0.368 OA
ATOM      3  O   *** d   1      50.045  29.639  32.594  0.00  0.00    -0.259 OA
ATOM      4  C   *** d   1      48.118  32.695  32.346  0.00  0.00     0.026 A 
ATOM      5  C   *** d   1      46.746  32.067  32.322  0.00  0.00     0.191 C 
ATOM      6  C   *** d   1      46.853  30.728  31.591  0.00  0.00     0.197 C 
ATOM      7  C   *** d   1      49.237  31.849  32.331  0.00  0.00     0.054 A 
ATOM      8  C   *** d   1      48.349  34.070  32.462  0.00  0.00     0.111 A 
ATOM      9  C   *** d   1      49.085  30.366  32.378  0.00  0.00     0.294 C 
ATOM     10  C   *** d   1      45.484  30.039  31.599  0.00  0.00     0.181 C 
ATOM     11  C   *** d   1      49.645  34.624  32.477  0.00  0.00     0.135 A 
ATOM     12  C   *** d   1      44.461  32.348  31.738  0.00  0.00     0.178 C 
ATOM     13  C   *** d   1      44.386  30.969  31.061  0.00  0.00     0.180 C 
ATOM     14  C   *** d   1      50.538  32.378  32.352  0.00  0.00     0.057 A 
ATOM     15  C   *** d   1      50.740  33.759  32.410  0.00  0.00     0.102 A 
ENDROOT
BRANCH  12  16
ATOM     16  C   *** d   1      43.502  33.357  31.091  0.00  0.00     0.213 C 
BRANCH  16  17
ATOM     17  O   *** d   1      42.340  32.679  30.589  0.00  0.00    -0.315 OA
BRANCH  17  18
ATOM     18  C   *** d   1      41.212  33.437  30.592  0.00  0.00     0.293 C 
ATOM     19  O   *** d   1      40.960  34.337  29.809  0.00  0.00    -0.259 OA
BRANCH  18  20
ATOM     20  C   *** d   1      40.294  33.002  31.677  0.00  0.00     0.041 A 
ATOM     21  C   *** d   1      40.730  31.991  32.545  0.00  0.00     0.046 A 
ATOM     22  C   *** d   1      39.910  31.538  33.587  0.00  0.00     0.073 A 
ATOM     23  C   *** d   1      38.642  32.109  33.752  0.00  0.00     0.028 A 
ATOM     24  C   *** d   1      38.198  33.112  32.888  0.00  0.00     0.003 A 
ATOM     25  C   *** d   1      39.019  33.558  31.851  0.00  0.00     0.018 A 
BRANCH  22  26
ATOM     26  N   *** d   1      40.422  30.457  34.487  0.00  0.00     0.035 NA
ATOM     27  O   *** d   1      41.368  29.529  33.760  0.00  0.00    -0.084 OA
ATOM     28  O   *** d   1      41.089  31.027  35.716  0.00  0.00    -0.084 OA
ENDBRANCH  22  26
ENDBRANCH  18  20
ENDBRANCH  17  18
ENDBRANCH  16  17
ENDBRANCH  12  16
BRANCH  13  29
ATOM     29  O   *** d   1      43.127  30.318  31.274  0.00  0.00    -0.390 OA
ATOM     30  H   *** d   1      43.309  29.507  31.789  0.00  0.00     0.210 HD
ENDBRANCH  13  29
BRANCH  10  31
ATOM     31  O   *** d   1      45.514  28.857  30.783  0.00  0.00    -0.390 OA
ATOM     32  H   *** d   1      45.055  28.170  31.305  0.00  0.00     0.210 HD
ENDBRANCH  10  31
BRANCH   8  33
ATOM     33  O   *** d   1      47.282  34.924  32.599  0.00  0.00    -0.357 OA
ATOM     34  H   *** d   1      47.633  35.813  32.393  0.00  0.00     0.217 HD
ENDBRANCH   8  33
BRANCH  11  35
ATOM     35  O   *** d   1      49.644  35.993  32.573  0.00  0.00    -0.351 OA
ATOM     36  C   *** d   1      49.818  36.751  31.384  0.00  0.00     0.210 C 
ENDBRANCH  11  35
BRANCH  15  37
ATOM     37  O   *** d   1      52.025  34.224  32.429  0.00  0.00    -0.358 OA
ATOM     38  H   *** d   1      52.630  33.525  32.127  0.00  0.00     0.217 HD
ENDBRANCH  15  37
TORSDOF 10
ENDMDL
MODEL 9
REMARK VINA RESULT:    -8.242      2.826      8.277
REMARK INTER + INTRA:         -12.848
REMARK INTER:                 -11.907
REMARK INTRA:                  -0.941
REMARK UNBOUND:                -0.752
REMARK  10 active torsions:
REMARK  status: ('A' for Active; 'I' for Inactive)
REMARK    1  A    between atoms: O_3  and  C_18 
REMARK    2  A    between atoms: O_4  and  C_21 
REMARK    3  A    between atoms: O_6  and  C_20 
REMARK    4  A    between atoms: O_7  and  C_23 
REMARK    5  A    between atoms: O_8  and  C_25 
REMARK    6  A    between atoms: O_9  and  C_26 
REMARK    7  A    between atoms: O_9  and  C_27 
REMARK    8  A    between atoms: N_13  and  C_31 
REMARK    9  A    between atoms: C_22  and  C_26 
REMARK   10  A    between atoms: C_27  and  C_28 
ROOT
ATOM      1  O   *** d   1      46.320  28.273  32.431  0.00  0.00    -0.306 OA
ATOM      2  O   *** d   1      45.768  31.850  31.837  0.00  0.00    -0.368 OA
ATOM      3  O   *** d   1      48.222  27.083  32.710  0.00  0.00    -0.259 OA
ATOM      4  C   *** d   1      47.817  30.673  32.460  0.00  0.00     0.026 A 
ATOM      5  C   *** d   1      46.308  30.710  32.507  0.00  0.00     0.191 C 
ATOM      6  C   *** d   1      45.785  29.454  31.807  0.00  0.00     0.197 C 
ATOM      7  C   *** d   1      48.451  29.422  32.422  0.00  0.00     0.054 A 
ATOM      8  C   *** d   1      48.631  31.809  32.531  0.00  0.00     0.111 A 
ATOM      9  C   *** d   1      47.668  28.156  32.514  0.00  0.00     0.294 C 
ATOM     10  C   *** d   1      44.254  29.435  31.888  0.00  0.00     0.181 C 
ATOM     11  C   *** d   1      50.038  31.738  32.479  0.00  0.00     0.135 A 
ATOM     12  C   *** d   1      44.352  31.960  32.008  0.00  0.00     0.178 C 
ATOM     13  C   *** d   1      43.649  30.749  31.370  0.00  0.00     0.180 C 
ATOM     14  C   *** d   1      49.851  29.328  32.377  0.00  0.00     0.057 A 
ATOM     15  C   *** d   1      50.639  30.481  32.392  0.00  0.00     0.102 A 
ENDROOT
BRANCH  12  16
ATOM     16  C   *** d   1      43.902  33.284  31.374  0.00  0.00     0.213 C 
BRANCH  16  17
ATOM     17  O   *** d   1      42.560  33.593  31.781  0.00  0.00    -0.315 OA
BRANCH  17  18
ATOM     18  C   *** d   1      42.429  33.849  33.109  0.00  0.00     0.293 C 
ATOM     19  O   *** d   1      43.132  34.603  33.759  0.00  0.00    -0.259 OA
BRANCH  18  20
ATOM     20  C   *** d   1      41.278  33.097  33.675  0.00  0.00     0.041 A 
ATOM     21  C   *** d   1      41.550  31.980  34.478  0.00  0.00     0.046 A 
ATOM     22  C   *** d   1      40.508  31.231  35.040  0.00  0.00     0.073 A 
ATOM     23  C   *** d   1      39.184  31.611  34.789  0.00  0.00     0.028 A 
ATOM     24  C   *** d   1      38.905  32.719  33.986  0.00  0.00     0.003 A 
ATOM     25  C   *** d   1      39.948  33.460  33.428  0.00  0.00     0.018 A 
BRANCH  22  26
ATOM     26  N   *** d   1      40.851  30.047  35.890  0.00  0.00     0.035 NA
ATOM     27  O   *** d   1      40.011  30.001  37.145  0.00  0.00    -0.084 OA
ATOM     28  O   *** d   1      40.716  28.754  35.122  0.00  0.00    -0.084 OA
ENDBRANCH  22  26
ENDBRANCH  18  20
ENDBRANCH  17  18
ENDBRANCH  16  17
ENDBRANCH  12  16
BRANCH  13  29
ATOM     29  O   *** d   1      42.244  30.717  31.650  0.00  0.00    -0.390 OA
ATOM     30  H   *** d   1      41.846  31.487  31.198  0.00  0.00     0.210 HD
ENDBRANCH  13  29
BRANCH  10  31
ATOM     31  O   *** d   1      43.725  28.355  31.103  0.00  0.00    -0.390 OA
ATOM     32  H   *** d   1      44.478  28.027  30.572  0.00  0.00     0.210 HD
ENDBRANCH  10  31
BRANCH   8  33
ATOM     33  O   *** d   1      48.052  33.045  32.688  0.00  0.00    -0.357 OA
ATOM     34  H   *** d   1      48.701  33.571  33.196  0.00  0.00     0.217 HD
ENDBRANCH   8  33
BRANCH  11  35
ATOM     35  O   *** d   1      50.640  32.971  32.540  0.00  0.00    -0.351 OA
ATOM     36  C   *** d   1      51.146  33.531  31.337  0.00  0.00     0.210 C 
ENDBRANCH  11  35
BRANCH  15  37
ATOM     37  O   *** d   1      51.998  30.336  32.347  0.00  0.00    -0.358 OA
ATOM     38  H   *** d   1      52.276  30.144  31.435  0.00  0.00     0.217 HD
ENDBRANCH  15  37
TORSDOF 10
ENDMDL
