MODEL 1
REMARK VINA RESULT:    -9.302      0.000      0.000
REMARK INTER + INTRA:         -15.117
REMARK INTER:                 -14.196
REMARK INTRA:                  -0.920
REMARK UNBOUND:                -0.920
REMARK  11 active torsions:
REMARK  status: ('A' for Active; 'I' for Inactive)
REMARK    1  A    between atoms: O1_2  and  C2_3 
REMARK    2  A    between atoms: C3_4  and  O2_5 
REMARK    3  A    between atoms: O2_5  and  C4_6 
REMARK    4  A    between atoms: C4_6  and  C5_8 
REMARK    5  A    between atoms: C7_10  and  N2_17 
REMARK    6  A    between atoms: C9_12  and  N1_14 
REMARK    7  A    between atoms: C15_26  and  O10_27 
REMARK    8  A    between atoms: C16_28  and  O11_29 
REMARK    9  A    between atoms: C17_30  and  C18_31 
REMARK   10  A    between atoms: C18_31  and  O12_32 
REMARK   11  A    between atoms: C21_36  and  O14_37 
ROOT
ATOM      1  C2  non d   1      45.384  31.311  30.812  0.00  0.00     0.136 A 
ATOM      2  C3  non d   1      44.372  31.968  31.429  0.00  0.00     0.116 A 
ATOM      3  C11 non d   1      44.612  33.114  32.093  0.00  0.00     0.058 A 
ATOM      4  C12 non d   1      45.860  33.623  32.138  0.00  0.00     0.054 A 
ATOM      5  C13 non d   1      46.036  34.920  32.865  0.00  0.00     0.294 C 
ATOM      6  O8  non d   1      45.093  35.638  33.172  0.00  0.00    -0.259 OA
ATOM      7  O9  non d   1      47.313  35.283  33.156  0.00  0.00    -0.306 OA
ATOM      8  C14 non d   1      48.354  34.302  33.009  0.00  0.00     0.197 C 
ATOM      9  C15 non d   1      49.701  35.009  33.131  0.00  0.00     0.181 C 
ATOM     10  C16 non d   1      50.849  34.024  32.881  0.00  0.00     0.180 C 
ATOM     11  C17 non d   1      50.628  33.256  31.568  0.00  0.00     0.177 C 
ATOM     12  O13 non d   1      49.315  32.655  31.517  0.00  0.00    -0.368 OA
ATOM     13  C19 non d   1      48.266  33.624  31.645  0.00  0.00     0.191 C 
ATOM     14  C20 non d   1      46.892  32.986  31.527  0.00  0.00     0.026 A 
ATOM     15  C21 non d   1      46.646  31.815  30.874  0.00  0.00     0.112 A 
ENDROOT
BRANCH   2  16
ATOM     16  O2  non d   1      43.060  31.448  31.416  0.00  0.00    -0.272 OA
BRANCH  16  17
ATOM     17  C4  non d   1      42.098  32.411  31.292  0.00  0.00     0.298 C 
ATOM     18  O3  non d   1      42.062  33.322  30.475  0.00  0.00    -0.259 OA
BRANCH  17  19
ATOM     19  C5  non d   1      41.065  32.239  32.364  0.00  0.00     0.044 A 
ATOM     20  C6  non d   1      40.037  33.107  32.522  0.00  0.00     0.053 A 
ATOM     21  C7  non d   1      39.146  32.897  33.518  0.00  0.00     0.106 A 
ATOM     22  C8  non d   1      39.254  31.848  34.361  0.00  0.00     0.072 A 
ATOM     23  C9  non d   1      40.291  31.001  34.184  0.00  0.00     0.106 A 
ATOM     24  C10 non d   1      41.199  31.183  33.200  0.00  0.00     0.053 A 
BRANCH  21  25
ATOM     25  N2  non d   1      38.032  33.839  33.686  0.00  0.00    -0.116 N 
ATOM     26  O6  non d   1      37.491  34.282  32.665  0.00  0.00    -0.532 OA
ATOM     27  O7  non d   1      37.698  34.140  34.841  0.00  0.00    -0.532 OA
ENDBRANCH  21  25
BRANCH  23  28
ATOM     28  N1  non d   1      40.436  29.850  35.086  0.00  0.00    -0.116 N 
ATOM     29  O4  non d   1      40.823  28.779  34.598  0.00  0.00    -0.532 OA
ATOM     30  O5  non d   1      40.166  30.016  36.284  0.00  0.00    -0.532 OA
ENDBRANCH  23  28
ENDBRANCH  17  19
ENDBRANCH  16  17
ENDBRANCH   2  16
BRANCH   1  31
ATOM     31  O1  non d   1      45.077  30.113  30.167  0.00  0.00    -0.351 OA
ATOM     32  C1  non d   1      45.179  28.971  31.019  0.00  0.00     0.210 C 
ENDBRANCH   1  31
BRANCH  15  33
ATOM     33  O14 non d   1      47.679  31.111  30.267  0.00  0.00    -0.357 OA
ATOM     34  H18 non d   1      48.226  31.687  29.701  0.00  0.00     0.217 HD
ENDBRANCH  15  33
BRANCH  11  35
ATOM     35  C18 non d   1      51.654  32.126  31.402  0.00  0.00     0.198 C 
BRANCH  35  36
ATOM     36  O12 non d   1      52.985  32.644  31.443  0.00  0.00    -0.398 OA
ATOM     37  H16 non d   1      53.044  33.199  32.243  0.00  0.00     0.209 HD
ENDBRANCH  35  36
ENDBRANCH  11  35
BRANCH   9  38
ATOM     38  O10 non d   1      49.860  35.573  34.441  0.00  0.00    -0.390 OA
ATOM     39  H10 non d   1      50.576  35.072  34.879  0.00  0.00     0.210 HD
ENDBRANCH   9  38
BRANCH  10  40
ATOM     40  O11 non d   1      52.073  34.761  32.827  0.00  0.00    -0.390 OA
ATOM     41  H12 non d   1      52.030  35.276  31.996  0.00  0.00     0.210 HD
ENDBRANCH  10  40
TORSDOF 11
ENDMDL
MODEL 2
REMARK VINA RESULT:    -9.261      0.138      2.456
REMARK INTER + INTRA:         -15.054
REMARK INTER:                 -14.120
REMARK INTRA:                  -0.934
REMARK UNBOUND:                -0.920
REMARK  11 active torsions:
REMARK  status: ('A' for Active; 'I' for Inactive)
REMARK    1  A    between atoms: O1_2  and  C2_3 
REMARK    2  A    between atoms: C3_4  and  O2_5 
REMARK    3  A    between atoms: O2_5  and  C4_6 
REMARK    4  A    between atoms: C4_6  and  C5_8 
REMARK    5  A    between atoms: C7_10  and  N2_17 
REMARK    6  A    between atoms: C9_12  and  N1_14 
REMARK    7  A    between atoms: C15_26  and  O10_27 
REMARK    8  A    between atoms: C16_28  and  O11_29 
REMARK    9  A    between atoms: C17_30  and  C18_31 
REMARK   10  A    between atoms: C18_31  and  O12_32 
REMARK   11  A    between atoms: C21_36  and  O14_37 
ROOT
ATOM      1  C2  non d   1      45.429  31.250  30.856  0.00  0.00     0.136 A 
ATOM      2  C3  non d   1      44.410  31.889  31.479  0.00  0.00     0.116 A 
ATOM      3  C11 non d   1      44.632  33.043  32.134  0.00  0.00     0.058 A 
ATOM      4  C12 non d   1      45.870  33.578  32.165  0.00  0.00     0.054 A 
ATOM      5  C13 non d   1      46.025  34.882  32.884  0.00  0.00     0.294 C 
ATOM      6  O8  non d   1      45.071  35.583  33.195  0.00  0.00    -0.259 OA
ATOM      7  O9  non d   1      47.297  35.273  33.161  0.00  0.00    -0.306 OA
ATOM      8  C14 non d   1      48.357  34.313  33.010  0.00  0.00     0.197 C 
ATOM      9  C15 non d   1      49.690  35.047  33.117  0.00  0.00     0.181 C 
ATOM     10  C16 non d   1      50.856  34.085  32.862  0.00  0.00     0.180 C 
ATOM     11  C17 non d   1      50.639  33.305  31.554  0.00  0.00     0.177 C 
ATOM     12  O13 non d   1      49.338  32.677  31.518  0.00  0.00    -0.368 OA
ATOM     13  C19 non d   1      48.271  33.625  31.650  0.00  0.00     0.191 C 
ATOM     14  C20 non d   1      46.909  32.959  31.548  0.00  0.00     0.026 A 
ATOM     15  C21 non d   1      46.682  31.780  30.903  0.00  0.00     0.112 A 
ENDROOT
BRANCH   2  16
ATOM     16  O2  non d   1      43.108  31.342  31.480  0.00  0.00    -0.272 OA
BRANCH  16  17
ATOM     17  C4  non d   1      42.125  32.287  31.388  0.00  0.00     0.298 C 
ATOM     18  O3  non d   1      42.036  33.186  30.562  0.00  0.00    -0.259 OA
BRANCH  17  19
ATOM     19  C5  non d   1      41.146  32.112  32.509  0.00  0.00     0.044 A 
ATOM     20  C6  non d   1      41.251  31.105  33.409  0.00  0.00     0.053 A 
ATOM     21  C7  non d   1      40.325  31.000  34.389  0.00  0.00     0.106 A 
ATOM     22  C8  non d   1      39.298  31.869  34.496  0.00  0.00     0.072 A 
ATOM     23  C9  non d   1      39.214  32.860  33.582  0.00  0.00     0.106 A 
ATOM     24  C10 non d   1      40.121  32.993  32.590  0.00  0.00     0.053 A 
BRANCH  21  25
ATOM     25  N2  non d   1      40.442  29.907  35.365  0.00  0.00    -0.116 N 
ATOM     26  O6  non d   1      40.141  30.149  36.541  0.00  0.00    -0.532 OA
ATOM     27  O7  non d   1      40.838  28.807  34.956  0.00  0.00    -0.532 OA
ENDBRANCH  21  25
BRANCH  23  28
ATOM     28  N1  non d   1      38.106  33.821  33.671  0.00  0.00    -0.116 N 
ATOM     29  O4  non d   1      37.747  34.187  34.799  0.00  0.00    -0.532 OA
ATOM     30  O5  non d   1      37.594  34.214  32.613  0.00  0.00    -0.532 OA
ENDBRANCH  23  28
ENDBRANCH  17  19
ENDBRANCH  16  17
ENDBRANCH   2  16
BRANCH   1  31
ATOM     31  O1  non d   1      45.141  30.042  30.220  0.00  0.00    -0.351 OA
ATOM     32  C1  non d   1      45.289  28.906  31.073  0.00  0.00     0.210 C 
ENDBRANCH   1  31
BRANCH  15  33
ATOM     33  O14 non d   1      47.723  31.094  30.291  0.00  0.00    -0.357 OA
ATOM     34  H18 non d   1      48.011  30.326  30.819  0.00  0.00     0.217 HD
ENDBRANCH  15  33
BRANCH  11  35
ATOM     35  C18 non d   1      51.687  32.196  31.385  0.00  0.00     0.198 C 
BRANCH  35  36
ATOM     36  O12 non d   1      53.005  32.745  31.381  0.00  0.00    -0.398 OA
ATOM     37  H16 non d   1      52.922  33.668  31.078  0.00  0.00     0.209 HD
ENDBRANCH  35  36
ENDBRANCH  11  35
BRANCH   9  38
ATOM     38  O10 non d   1      49.850  35.622  34.421  0.00  0.00    -0.390 OA
ATOM     39  H10 non d   1      48.950  35.775  34.774  0.00  0.00     0.210 HD
ENDBRANCH   9  38
BRANCH  10  40
ATOM     40  O11 non d   1      52.064  34.846  32.792  0.00  0.00    -0.390 OA
ATOM     41  H12 non d   1      51.927  35.607  33.393  0.00  0.00     0.210 HD
ENDBRANCH  10  40
TORSDOF 11
ENDMDL
MODEL 3
REMARK VINA RESULT:    -8.897      1.368      1.666
REMARK INTER + INTRA:         -14.499
REMARK INTER:                 -13.351
REMARK INTRA:                  -1.148
REMARK UNBOUND:                -0.920
REMARK  11 active torsions:
REMARK  status: ('A' for Active; 'I' for Inactive)
REMARK    1  A    between atoms: O1_2  and  C2_3 
REMARK    2  A    between atoms: C3_4  and  O2_5 
REMARK    3  A    between atoms: O2_5  and  C4_6 
REMARK    4  A    between atoms: C4_6  and  C5_8 
REMARK    5  A    between atoms: C7_10  and  N2_17 
REMARK    6  A    between atoms: C9_12  and  N1_14 
REMARK    7  A    between atoms: C15_26  and  O10_27 
REMARK    8  A    between atoms: C16_28  and  O11_29 
REMARK    9  A    between atoms: C17_30  and  C18_31 
REMARK   10  A    between atoms: C18_31  and  O12_32 
REMARK   11  A    between atoms: C21_36  and  O14_37 
ROOT
ATOM      1  C2  non d   1      45.818  31.608  30.577  0.00  0.00     0.136 A 
ATOM      2  C3  non d   1      44.771  32.191  31.210  0.00  0.00     0.116 A 
ATOM      3  C11 non d   1      44.870  33.454  31.663  0.00  0.00     0.058 A 
ATOM      4  C12 non d   1      46.008  34.154  31.480  0.00  0.00     0.054 A 
ATOM      5  C13 non d   1      46.024  35.564  31.981  0.00  0.00     0.294 C 
ATOM      6  O8  non d   1      45.004  36.166  32.292  0.00  0.00    -0.259 OA
ATOM      7  O9  non d   1      47.239  36.167  32.057  0.00  0.00    -0.306 OA
ATOM      8  C14 non d   1      48.417  35.352  31.930  0.00  0.00     0.197 C 
ATOM      9  C15 non d   1      49.626  36.272  31.781  0.00  0.00     0.181 C 
ATOM     10  C16 non d   1      50.898  35.452  31.540  0.00  0.00     0.180 C 
ATOM     11  C17 non d   1      50.690  34.452  30.390  0.00  0.00     0.177 C 
ATOM     12  O13 non d   1      49.503  33.652  30.590  0.00  0.00    -0.368 OA
ATOM     13  C19 non d   1      48.319  34.451  30.701  0.00  0.00     0.191 C 
ATOM     14  C20 non d   1      47.072  33.595  30.847  0.00  0.00     0.026 A 
ATOM     15  C21 non d   1      46.973  32.308  30.408  0.00  0.00     0.112 A 
ENDROOT
BRANCH   2  16
ATOM     16  O2  non d   1      43.575  31.476  31.434  0.00  0.00    -0.272 OA
BRANCH  16  17
ATOM     17  C4  non d   1      43.449  31.022  32.717  0.00  0.00     0.298 C 
ATOM     18  O3  non d   1      44.321  30.523  33.415  0.00  0.00    -0.259 OA
BRANCH  17  19
ATOM     19  C5  non d   1      42.029  31.171  33.171  0.00  0.00     0.044 A 
ATOM     20  C6  non d   1      41.141  31.961  32.521  0.00  0.00     0.053 A 
ATOM     21  C7  non d   1      39.877  32.057  32.992  0.00  0.00     0.106 A 
ATOM     22  C8  non d   1      39.475  31.390  34.095  0.00  0.00     0.072 A 
ATOM     23  C9  non d   1      40.381  30.613  34.727  0.00  0.00     0.106 A 
ATOM     24  C10 non d   1      41.652  30.496  34.283  0.00  0.00     0.053 A 
BRANCH  21  25
ATOM     25  N2  non d   1      38.916  32.914  32.284  0.00  0.00    -0.116 N 
ATOM     26  O6  non d   1      39.253  33.371  31.184  0.00  0.00    -0.532 OA
ATOM     27  O7  non d   1      37.826  33.133  32.829  0.00  0.00    -0.532 OA
ENDBRANCH  21  25
BRANCH  23  28
ATOM     28  N1  non d   1      39.974  29.875  35.931  0.00  0.00    -0.116 N 
ATOM     29  O4  non d   1      40.395  30.278  37.024  0.00  0.00    -0.532 OA
ATOM     30  O5  non d   1      39.232  28.895  35.786  0.00  0.00    -0.532 OA
ENDBRANCH  23  28
ENDBRANCH  17  19
ENDBRANCH  16  17
ENDBRANCH   2  16
BRANCH   1  31
ATOM     31  O1  non d   1      45.665  30.287  30.157  0.00  0.00    -0.351 OA
ATOM     32  C1  non d   1      46.314  29.345  31.012  0.00  0.00     0.210 C 
ENDBRANCH   1  31
BRANCH  15  33
ATOM     33  O14 non d   1      48.049  31.685  29.790  0.00  0.00    -0.357 OA
ATOM     34  H18 non d   1      48.760  31.475  30.425  0.00  0.00     0.217 HD
ENDBRANCH  15  33
BRANCH  11  35
ATOM     35  C18 non d   1      51.877  33.487  30.269  0.00  0.00     0.198 C 
BRANCH  35  36
ATOM     36  O12 non d   1      52.650  33.485  31.470  0.00  0.00    -0.398 OA
ATOM     37  H16 non d   1      52.226  32.847  32.073  0.00  0.00     0.209 HD
ENDBRANCH  35  36
ENDBRANCH  11  35
BRANCH   9  38
ATOM     38  O10 non d   1      49.808  37.063  32.963  0.00  0.00    -0.390 OA
ATOM     39  H10 non d   1      50.364  36.537  33.572  0.00  0.00     0.210 HD
ENDBRANCH   9  38
BRANCH  10  40
ATOM     40  O11 non d   1      51.964  36.353  31.228  0.00  0.00    -0.390 OA
ATOM     41  H12 non d   1      52.515  36.394  32.036  0.00  0.00     0.210 HD
ENDBRANCH  10  40
TORSDOF 11
ENDMDL
MODEL 4
REMARK VINA RESULT:    -8.888      2.050      3.286
REMARK INTER + INTRA:         -14.484
REMARK INTER:                 -13.637
REMARK INTRA:                  -0.847
REMARK UNBOUND:                -0.920
REMARK  11 active torsions:
REMARK  status: ('A' for Active; 'I' for Inactive)
REMARK    1  A    between atoms: O1_2  and  C2_3 
REMARK    2  A    between atoms: C3_4  and  O2_5 
REMARK    3  A    between atoms: O2_5  and  C4_6 
REMARK    4  A    between atoms: C4_6  and  C5_8 
REMARK    5  A    between atoms: C7_10  and  N2_17 
REMARK    6  A    between atoms: C9_12  and  N1_14 
REMARK    7  A    between atoms: C15_26  and  O10_27 
REMARK    8  A    between atoms: C16_28  and  O11_29 
REMARK    9  A    between atoms: C17_30  and  C18_31 
REMARK   10  A    between atoms: C18_31  and  O12_32 
REMARK   11  A    between atoms: C21_36  and  O14_37 
ROOT
ATOM      1  C2  non d   1      45.658  32.631  31.641  0.00  0.00     0.136 A 
ATOM      2  C3  non d   1      44.639  33.456  31.301  0.00  0.00     0.116 A 
ATOM      3  C11 non d   1      44.887  34.613  30.661  0.00  0.00     0.058 A 
ATOM      4  C12 non d   1      46.152  34.955  30.343  0.00  0.00     0.054 A 
ATOM      5  C13 non d   1      46.339  36.240  29.599  0.00  0.00     0.294 C 
ATOM      6  O8  non d   1      45.414  36.831  29.057  0.00  0.00    -0.259 OA
ATOM      7  O9  non d   1      47.608  36.723  29.531  0.00  0.00    -0.306 OA
ATOM      8  C14 non d   1      48.607  36.143  30.388  0.00  0.00     0.197 C 
ATOM      9  C15 non d   1      49.975  36.654  29.946  0.00  0.00     0.181 C 
ATOM     10  C16 non d   1      51.088  35.987  30.763  0.00  0.00     0.180 C 
ATOM     11  C17 non d   1      50.925  34.458  30.754  0.00  0.00     0.177 C 
ATOM     12  O13 non d   1      49.590  34.063  31.144  0.00  0.00    -0.368 OA
ATOM     13  C19 non d   1      48.585  34.620  30.287  0.00  0.00     0.191 C 
ATOM     14  C20 non d   1      47.192  34.146  30.670  0.00  0.00     0.026 A 
ATOM     15  C21 non d   1      46.937  32.985  31.336  0.00  0.00     0.112 A 
ENDROOT
BRANCH   2  16
ATOM     16  O2  non d   1      43.306  33.134  31.639  0.00  0.00    -0.272 OA
BRANCH  16  17
ATOM     17  C4  non d   1      42.878  33.741  32.786  0.00  0.00     0.298 C 
ATOM     18  O3  non d   1      43.392  34.696  33.354  0.00  0.00    -0.259 OA
BRANCH  17  19
ATOM     19  C5  non d   1      41.672  33.030  33.318  0.00  0.00     0.044 A 
ATOM     20  C6  non d   1      41.742  31.784  33.845  0.00  0.00     0.053 A 
ATOM     21  C7  non d   1      40.611  31.197  34.298  0.00  0.00     0.106 A 
ATOM     22  C8  non d   1      39.413  31.816  34.238  0.00  0.00     0.072 A 
ATOM     23  C9  non d   1      39.370  33.056  33.704  0.00  0.00     0.106 A 
ATOM     24  C10 non d   1      40.481  33.670  33.241  0.00  0.00     0.053 A 
BRANCH  21  25
ATOM     25  N2  non d   1      40.690  29.845  34.869  0.00  0.00    -0.116 N 
ATOM     26  O6  non d   1      40.255  29.677  36.016  0.00  0.00    -0.532 OA
ATOM     27  O7  non d   1      41.190  28.951  34.173  0.00  0.00    -0.532 OA
ENDBRANCH  21  25
BRANCH  23  28
ATOM     28  N1  non d   1      38.081  33.756  33.623  0.00  0.00    -0.116 N 
ATOM     29  O4  non d   1      37.657  34.057  32.499  0.00  0.00    -0.532 OA
ATOM     30  O5  non d   1      37.490  34.003  34.683  0.00  0.00    -0.532 OA
ENDBRANCH  23  28
ENDBRANCH  17  19
ENDBRANCH  16  17
ENDBRANCH   2  16
BRANCH   1  31
ATOM     31  O1  non d   1      45.340  31.461  32.330  0.00  0.00    -0.351 OA
ATOM     32  C1  non d   1      45.179  30.328  31.475  0.00  0.00     0.210 C 
ENDBRANCH   1  31
BRANCH  15  33
ATOM     33  O14 non d   1      47.974  32.146  31.724  0.00  0.00    -0.357 OA
ATOM     34  H18 non d   1      47.864  31.245  31.367  0.00  0.00     0.217 HD
ENDBRANCH  15  33
BRANCH  11  35
ATOM     35  C18 non d   1      51.903  33.787  31.729  0.00  0.00     0.198 C 
BRANCH  35  36
ATOM     36  O12 non d   1      52.205  34.659  32.819  0.00  0.00    -0.398 OA
ATOM     37  H16 non d   1      52.400  35.532  32.432  0.00  0.00     0.209 HD
ENDBRANCH  35  36
ENDBRANCH  11  35
BRANCH   9  38
ATOM     38  O10 non d   1      50.067  38.075  30.123  0.00  0.00    -0.390 OA
ATOM     39  H10 non d   1      50.990  38.267  30.383  0.00  0.00     0.210 HD
ENDBRANCH   9  38
BRANCH  10  40
ATOM     40  O11 non d   1      52.347  36.356  30.197  0.00  0.00    -0.390 OA
ATOM     41  H12 non d   1      52.799  36.882  30.887  0.00  0.00     0.210 HD
ENDBRANCH  10  40
TORSDOF 11
ENDMDL
MODEL 5
REMARK VINA RESULT:    -8.754      1.129      3.954
REMARK INTER + INTRA:         -14.280
REMARK INTER:                 -13.381
REMARK INTRA:                  -0.899
REMARK UNBOUND:                -0.920
REMARK  11 active torsions:
REMARK  status: ('A' for Active; 'I' for Inactive)
REMARK    1  A    between atoms: O1_2  and  C2_3 
REMARK    2  A    between atoms: C3_4  and  O2_5 
REMARK    3  A    between atoms: O2_5  and  C4_6 
REMARK    4  A    between atoms: C4_6  and  C5_8 
REMARK    5  A    between atoms: C7_10  and  N2_17 
REMARK    6  A    between atoms: C9_12  and  N1_14 
REMARK    7  A    between atoms: C15_26  and  O10_27 
REMARK    8  A    between atoms: C16_28  and  O11_29 
REMARK    9  A    between atoms: C17_30  and  C18_31 
REMARK   10  A    between atoms: C18_31  and  O12_32 
REMARK   11  A    between atoms: C21_36  and  O14_37 
ROOT
ATOM      1  C2  non d   1      44.696  34.982  32.230  0.00  0.00     0.136 A 
ATOM      2  C3  non d   1      43.860  34.149  31.563  0.00  0.00     0.116 A 
ATOM      3  C11 non d   1      44.317  32.986  31.065  0.00  0.00     0.058 A 
ATOM      4  C12 non d   1      45.608  32.635  31.236  0.00  0.00     0.054 A 
ATOM      5  C13 non d   1      46.027  31.309  30.684  0.00  0.00     0.294 C 
ATOM      6  O8  non d   1      45.223  30.453  30.338  0.00  0.00    -0.259 OA
ATOM      7  O9  non d   1      47.365  31.082  30.600  0.00  0.00    -0.306 OA
ATOM      8  C14 non d   1      48.259  32.195  30.772  0.00  0.00     0.197 C 
ATOM      9  C15 non d   1      49.681  31.655  30.901  0.00  0.00     0.181 C 
ATOM     10  C16 non d   1      50.665  32.794  31.187  0.00  0.00     0.180 C 
ATOM     11  C17 non d   1      50.178  33.647  32.370  0.00  0.00     0.177 C 
ATOM     12  O13 non d   1      48.812  34.081  32.186  0.00  0.00    -0.368 OA
ATOM     13  C19 non d   1      47.906  32.981  32.031  0.00  0.00     0.191 C 
ATOM     14  C20 non d   1      46.466  33.450  31.902  0.00  0.00     0.026 A 
ATOM     15  C21 non d   1      46.003  34.637  32.387  0.00  0.00     0.112 A 
ENDROOT
BRANCH   2  16
ATOM     16  O2  non d   1      42.509  34.501  31.352  0.00  0.00    -0.272 OA
BRANCH  16  17
ATOM     17  C4  non d   1      41.731  33.445  30.966  0.00  0.00     0.298 C 
ATOM     18  O3  non d   1      41.657  32.948  29.850  0.00  0.00    -0.259 OA
BRANCH  17  19
ATOM     19  C5  non d   1      40.899  32.979  32.121  0.00  0.00     0.044 A 
ATOM     20  C6  non d   1      41.239  31.901  32.868  0.00  0.00     0.053 A 
ATOM     21  C7  non d   1      40.437  31.529  33.891  0.00  0.00     0.106 A 
ATOM     22  C8  non d   1      39.303  32.200  34.188  0.00  0.00     0.072 A 
ATOM     23  C9  non d   1      38.984  33.268  33.424  0.00  0.00     0.106 A 
ATOM     24  C10 non d   1      39.764  33.665  32.395  0.00  0.00     0.053 A 
BRANCH  21  25
ATOM     25  N2  non d   1      40.809  30.360  34.699  0.00  0.00    -0.116 N 
ATOM     26  O6  non d   1      40.821  30.490  35.930  0.00  0.00    -0.532 OA
ATOM     27  O7  non d   1      41.093  29.312  34.104  0.00  0.00    -0.532 OA
ENDBRANCH  21  25
BRANCH  23  28
ATOM     28  N1  non d   1      37.756  34.018  33.721  0.00  0.00    -0.116 N 
ATOM     29  O4  non d   1      37.127  34.496  32.767  0.00  0.00    -0.532 OA
ATOM     30  O5  non d   1      37.418  34.128  34.908  0.00  0.00    -0.532 OA
ENDBRANCH  23  28
ENDBRANCH  17  19
ENDBRANCH  16  17
ENDBRANCH   2  16
BRANCH   1  31
ATOM     31  O1  non d   1      44.170  36.187  32.696  0.00  0.00    -0.351 OA
ATOM     32  C1  non d   1      43.786  36.142  34.071  0.00  0.00     0.210 C 
ENDBRANCH   1  31
BRANCH  15  33
ATOM     33  O14 non d   1      46.855  35.518  33.041  0.00  0.00    -0.357 OA
ATOM     34  H18 non d   1      47.538  35.873  32.441  0.00  0.00     0.217 HD
ENDBRANCH  15  33
BRANCH  11  35
ATOM     35  C18 non d   1      51.039  34.907  32.542  0.00  0.00     0.198 C 
BRANCH  35  36
ATOM     36  O12 non d   1      52.403  34.556  32.777  0.00  0.00    -0.398 OA
ATOM     37  H16 non d   1      52.475  33.596  32.621  0.00  0.00     0.209 HD
ENDBRANCH  35  36
ENDBRANCH  11  35
BRANCH   9  38
ATOM     38  O10 non d   1      50.084  30.995  29.692  0.00  0.00    -0.390 OA
ATOM     39  H10 non d   1      51.061  30.963  29.701  0.00  0.00     0.210 HD
ENDBRANCH   9  38
BRANCH  10  40
ATOM     40  O11 non d   1      51.943  32.224  31.478  0.00  0.00    -0.390 OA
ATOM     41  H12 non d   1      51.913  31.987  32.428  0.00  0.00     0.210 HD
ENDBRANCH  10  40
TORSDOF 11
ENDMDL
MODEL 6
REMARK VINA RESULT:    -8.746      1.426      2.720
REMARK INTER + INTRA:         -14.267
REMARK INTER:                 -13.173
REMARK INTRA:                  -1.095
REMARK UNBOUND:                -0.920
REMARK  11 active torsions:
REMARK  status: ('A' for Active; 'I' for Inactive)
REMARK    1  A    between atoms: O1_2  and  C2_3 
REMARK    2  A    between atoms: C3_4  and  O2_5 
REMARK    3  A    between atoms: O2_5  and  C4_6 
REMARK    4  A    between atoms: C4_6  and  C5_8 
REMARK    5  A    between atoms: C7_10  and  N2_17 
REMARK    6  A    between atoms: C9_12  and  N1_14 
REMARK    7  A    between atoms: C15_26  and  O10_27 
REMARK    8  A    between atoms: C16_28  and  O11_29 
REMARK    9  A    between atoms: C17_30  and  C18_31 
REMARK   10  A    between atoms: C18_31  and  O12_32 
REMARK   11  A    between atoms: C21_36  and  O14_37 
ROOT
ATOM      1  C2  non d   1      45.876  31.578  30.626  0.00  0.00     0.136 A 
ATOM      2  C3  non d   1      44.835  32.165  31.265  0.00  0.00     0.116 A 
ATOM      3  C11 non d   1      44.933  33.436  31.696  0.00  0.00     0.058 A 
ATOM      4  C12 non d   1      46.064  34.139  31.485  0.00  0.00     0.054 A 
ATOM      5  C13 non d   1      46.078  35.557  31.963  0.00  0.00     0.294 C 
ATOM      6  O8  non d   1      45.059  36.159  32.279  0.00  0.00    -0.259 OA
ATOM      7  O9  non d   1      47.291  36.169  32.012  0.00  0.00    -0.306 OA
ATOM      8  C14 non d   1      48.471  35.358  31.881  0.00  0.00     0.197 C 
ATOM      9  C15 non d   1      49.672  36.282  31.700  0.00  0.00     0.181 C 
ATOM     10  C16 non d   1      50.946  35.466  31.454  0.00  0.00     0.180 C 
ATOM     11  C17 non d   1      50.728  34.447  30.324  0.00  0.00     0.177 C 
ATOM     12  O13 non d   1      49.549  33.643  30.553  0.00  0.00    -0.368 OA
ATOM     13  C19 non d   1      48.361  34.437  30.668  0.00  0.00     0.191 C 
ATOM     14  C20 non d   1      47.122  33.576  30.846  0.00  0.00     0.026 A 
ATOM     15  C21 non d   1      47.024  32.282  30.430  0.00  0.00     0.112 A 
ENDROOT
BRANCH   2  16
ATOM     16  O2  non d   1      43.646  31.447  31.517  0.00  0.00    -0.272 OA
BRANCH  16  17
ATOM     17  C4  non d   1      43.559  30.980  32.798  0.00  0.00     0.298 C 
ATOM     18  O3  non d   1      44.455  30.484  33.469  0.00  0.00    -0.259 OA
BRANCH  17  19
ATOM     19  C5  non d   1      42.150  31.108  33.292  0.00  0.00     0.044 A 
ATOM     20  C6  non d   1      41.708  30.455  34.393  0.00  0.00     0.053 A 
ATOM     21  C7  non d   1      40.421  30.608  34.776  0.00  0.00     0.106 A 
ATOM     22  C8  non d   1      39.562  31.394  34.092  0.00  0.00     0.072 A 
ATOM     23  C9  non d   1      40.027  32.030  32.995  0.00  0.00     0.106 A 
ATOM     24  C10 non d   1      41.307  31.897  32.584  0.00  0.00     0.053 A 
BRANCH  21  25
ATOM     25  N2  non d   1      39.944  29.898  35.971  0.00  0.00    -0.116 N 
ATOM     26  O6  non d   1      39.132  28.978  35.810  0.00  0.00    -0.532 OA
ATOM     27  O7  non d   1      40.378  30.263  37.072  0.00  0.00    -0.532 OA
ENDBRANCH  21  25
BRANCH  23  28
ATOM     28  N1  non d   1      39.116  32.891  32.228  0.00  0.00    -0.116 N 
ATOM     29  O4  non d   1      39.567  33.456  31.222  0.00  0.00    -0.532 OA
ATOM     30  O5  non d   1      37.950  33.001  32.628  0.00  0.00    -0.532 OA
ENDBRANCH  23  28
ENDBRANCH  17  19
ENDBRANCH  16  17
ENDBRANCH   2  16
BRANCH   1  31
ATOM     31  O1  non d   1      45.725  30.250  30.230  0.00  0.00    -0.351 OA
ATOM     32  C1  non d   1      46.483  29.335  31.023  0.00  0.00     0.210 C 
ENDBRANCH   1  31
BRANCH  15  33
ATOM     33  O14 non d   1      48.096  31.655  29.806  0.00  0.00    -0.357 OA
ATOM     34  H18 non d   1      48.950  31.933  30.187  0.00  0.00     0.217 HD
ENDBRANCH  15  33
BRANCH  11  35
ATOM     35  C18 non d   1      51.919  33.486  30.201  0.00  0.00     0.198 C 
BRANCH  35  36
ATOM     36  O12 non d   1      52.661  33.445  31.420  0.00  0.00    -0.398 OA
ATOM     37  H16 non d   1      52.018  33.273  32.133  0.00  0.00     0.209 HD
ENDBRANCH  35  36
ENDBRANCH  11  35
BRANCH   9  38
ATOM     38  O10 non d   1      49.867  37.094  32.867  0.00  0.00    -0.390 OA
ATOM     39  H10 non d   1      50.745  36.861  33.229  0.00  0.00     0.210 HD
ENDBRANCH   9  38
BRANCH  10  40
ATOM     40  O11 non d   1      52.002  36.368  31.113  0.00  0.00    -0.390 OA
ATOM     41  H12 non d   1      52.372  36.030  30.272  0.00  0.00     0.210 HD
ENDBRANCH  10  40
TORSDOF 11
ENDMDL
MODEL 7
REMARK VINA RESULT:    -8.649      1.126      3.217
REMARK INTER + INTRA:         -14.121
REMARK INTER:                 -13.272
REMARK INTRA:                  -0.849
REMARK UNBOUND:                -0.920
REMARK  11 active torsions:
REMARK  status: ('A' for Active; 'I' for Inactive)
REMARK    1  A    between atoms: O1_2  and  C2_3 
REMARK    2  A    between atoms: C3_4  and  O2_5 
REMARK    3  A    between atoms: O2_5  and  C4_6 
REMARK    4  A    between atoms: C4_6  and  C5_8 
REMARK    5  A    between atoms: C7_10  and  N2_17 
REMARK    6  A    between atoms: C9_12  and  N1_14 
REMARK    7  A    between atoms: C15_26  and  O10_27 
REMARK    8  A    between atoms: C16_28  and  O11_29 
REMARK    9  A    between atoms: C17_30  and  C18_31 
REMARK   10  A    between atoms: C18_31  and  O12_32 
REMARK   11  A    between atoms: C21_36  and  O14_37 
ROOT
ATOM      1  C2  non d   1      44.701  34.915  32.217  0.00  0.00     0.136 A 
ATOM      2  C3  non d   1      43.867  34.083  31.547  0.00  0.00     0.116 A 
ATOM      3  C11 non d   1      44.330  32.928  31.035  0.00  0.00     0.058 A 
ATOM      4  C12 non d   1      45.623  32.583  31.197  0.00  0.00     0.054 A 
ATOM      5  C13 non d   1      46.048  31.265  30.630  0.00  0.00     0.294 C 
ATOM      6  O8  non d   1      45.248  30.407  30.280  0.00  0.00    -0.259 OA
ATOM      7  O9  non d   1      47.387  31.048  30.537  0.00  0.00    -0.306 OA
ATOM      8  C14 non d   1      48.275  32.165  30.715  0.00  0.00     0.197 C 
ATOM      9  C15 non d   1      49.700  31.632  30.832  0.00  0.00     0.181 C 
ATOM     10  C16 non d   1      50.679  32.775  31.125  0.00  0.00     0.180 C 
ATOM     11  C17 non d   1      50.193  33.614  32.318  0.00  0.00     0.177 C 
ATOM     12  O13 non d   1      48.822  34.041  32.145  0.00  0.00    -0.368 OA
ATOM     13  C19 non d   1      47.923  32.937  31.984  0.00  0.00     0.191 C 
ATOM     14  C20 non d   1      46.480  33.398  31.866  0.00  0.00     0.026 A 
ATOM     15  C21 non d   1      46.011  34.577  32.364  0.00  0.00     0.112 A 
ENDROOT
BRANCH   2  16
ATOM     16  O2  non d   1      42.513  34.428  31.345  0.00  0.00    -0.272 OA
BRANCH  16  17
ATOM     17  C4  non d   1      41.735  33.366  30.978  0.00  0.00     0.298 C 
ATOM     18  O3  non d   1      41.704  32.812  29.887  0.00  0.00    -0.259 OA
BRANCH  17  19
ATOM     19  C5  non d   1      40.842  32.973  32.115  0.00  0.00     0.044 A 
ATOM     20  C6  non d   1      39.709  33.653  32.412  0.00  0.00     0.053 A 
ATOM     21  C7  non d   1      38.955  33.249  33.460  0.00  0.00     0.106 A 
ATOM     22  C8  non d   1      39.300  32.188  34.220  0.00  0.00     0.072 A 
ATOM     23  C9  non d   1      40.438  31.531  33.905  0.00  0.00     0.106 A 
ATOM     24  C10 non d   1      41.214  31.909  32.866  0.00  0.00     0.053 A 
BRANCH  21  25
ATOM     25  N2  non d   1      37.726  33.989  33.779  0.00  0.00    -0.116 N 
ATOM     26  O6  non d   1      37.400  34.078  34.970  0.00  0.00    -0.532 OA
ATOM     27  O7  non d   1      37.084  34.477  32.839  0.00  0.00    -0.532 OA
ENDBRANCH  21  25
BRANCH  23  28
ATOM     28  N1  non d   1      40.841  30.373  34.714  0.00  0.00    -0.116 N 
ATOM     29  O4  non d   1      40.939  30.531  35.939  0.00  0.00    -0.532 OA
ATOM     30  O5  non d   1      41.058  29.304  34.127  0.00  0.00    -0.532 OA
ENDBRANCH  23  28
ENDBRANCH  17  19
ENDBRANCH  16  17
ENDBRANCH   2  16
BRANCH   1  31
ATOM     31  O1  non d   1      44.170  36.112  32.697  0.00  0.00    -0.351 OA
ATOM     32  C1  non d   1      43.829  36.064  34.083  0.00  0.00     0.210 C 
ENDBRANCH   1  31
BRANCH  15  33
ATOM     33  O14 non d   1      46.861  35.457  33.022  0.00  0.00    -0.357 OA
ATOM     34  H18 non d   1      47.410  35.966  32.396  0.00  0.00     0.217 HD
ENDBRANCH  15  33
BRANCH  11  35
ATOM     35  C18 non d   1      51.046  34.878  32.497  0.00  0.00     0.198 C 
BRANCH  35  36
ATOM     36  O12 non d   1      52.396  34.533  32.811  0.00  0.00    -0.398 OA
ATOM     37  H16 non d   1      52.811  34.245  31.978  0.00  0.00     0.209 HD
ENDBRANCH  35  36
ENDBRANCH  11  35
BRANCH   9  38
ATOM     38  O10 non d   1      50.102  30.987  29.616  0.00  0.00    -0.390 OA
ATOM     39  H10 non d   1      50.313  31.696  28.977  0.00  0.00     0.210 HD
ENDBRANCH   9  38
BRANCH  10  40
ATOM     40  O11 non d   1      51.962  32.211  31.404  0.00  0.00    -0.390 OA
ATOM     41  H12 non d   1      52.253  31.798  30.566  0.00  0.00     0.210 HD
ENDBRANCH  10  40
TORSDOF 11
ENDMDL
MODEL 8
REMARK VINA RESULT:    -8.528      1.985      4.577
REMARK INTER + INTRA:         -13.936
REMARK INTER:                 -12.774
REMARK INTRA:                  -1.162
REMARK UNBOUND:                -0.920
REMARK  11 active torsions:
REMARK  status: ('A' for Active; 'I' for Inactive)
REMARK    1  A    between atoms: O1_2  and  C2_3 
REMARK    2  A    between atoms: C3_4  and  O2_5 
REMARK    3  A    between atoms: O2_5  and  C4_6 
REMARK    4  A    between atoms: C4_6  and  C5_8 
REMARK    5  A    between atoms: C7_10  and  N2_17 
REMARK    6  A    between atoms: C9_12  and  N1_14 
REMARK    7  A    between atoms: C15_26  and  O10_27 
REMARK    8  A    between atoms: C16_28  and  O11_29 
REMARK    9  A    between atoms: C17_30  and  C18_31 
REMARK   10  A    between atoms: C18_31  and  O12_32 
REMARK   11  A    between atoms: C21_36  and  O14_37 
ROOT
ATOM      1  C2  non d   1      46.031  33.936  32.068  0.00  0.00     0.136 A 
ATOM      2  C3  non d   1      44.947  33.127  32.162  0.00  0.00     0.116 A 
ATOM      3  C11 non d   1      44.981  31.886  31.644  0.00  0.00     0.058 A 
ATOM      4  C12 non d   1      46.097  31.432  31.039  0.00  0.00     0.054 A 
ATOM      5  C13 non d   1      46.065  30.028  30.523  0.00  0.00     0.294 C 
ATOM      6  O8  non d   1      45.203  29.223  30.852  0.00  0.00    -0.259 OA
ATOM      7  O9  non d   1      47.064  29.671  29.674  0.00  0.00    -0.306 OA
ATOM      8  C14 non d   1      47.894  30.706  29.120  0.00  0.00     0.197 C 
ATOM      9  C15 non d   1      49.085  30.049  28.428  0.00  0.00     0.181 C 
ATOM     10  C16 non d   1      50.057  31.113  27.906  0.00  0.00     0.180 C 
ATOM     11  C17 non d   1      50.416  32.112  29.018  0.00  0.00     0.177 C 
ATOM     12  O13 non d   1      49.233  32.653  29.648  0.00  0.00    -0.368 OA
ATOM     13  C19 non d   1      48.404  31.633  30.220  0.00  0.00     0.191 C 
ATOM     14  C20 non d   1      47.198  32.221  30.933  0.00  0.00     0.026 A 
ATOM     15  C21 non d   1      47.151  33.485  31.441  0.00  0.00     0.112 A 
ENDROOT
BRANCH   2  16
ATOM     16  O2  non d   1      43.758  33.582  32.772  0.00  0.00    -0.272 OA
BRANCH  16  17
ATOM     17  C4  non d   1      42.655  33.439  31.978  0.00  0.00     0.298 C 
ATOM     18  O3  non d   1      42.540  33.762  30.803  0.00  0.00    -0.259 OA
BRANCH  17  19
ATOM     19  C5  non d   1      41.529  32.853  32.775  0.00  0.00     0.044 A 
ATOM     20  C6  non d   1      41.631  31.654  33.396  0.00  0.00     0.053 A 
ATOM     21  C7  non d   1      40.571  31.181  34.090  0.00  0.00     0.106 A 
ATOM     22  C8  non d   1      39.413  31.868  34.180  0.00  0.00     0.072 A 
ATOM     23  C9  non d   1      39.336  33.059  33.547  0.00  0.00     0.106 A 
ATOM     24  C10 non d   1      40.376  33.560  32.844  0.00  0.00     0.053 A 
BRANCH  21  25
ATOM     25  N2  non d   1      40.685  29.880  34.764  0.00  0.00    -0.116 N 
ATOM     26  O6  non d   1      40.343  29.814  35.952  0.00  0.00    -0.532 OA
ATOM     27  O7  non d   1      41.119  28.924  34.107  0.00  0.00    -0.532 OA
ENDBRANCH  21  25
BRANCH  23  28
ATOM     28  N1  non d   1      38.089  33.831  33.624  0.00  0.00    -0.116 N 
ATOM     29  O4  non d   1      37.603  34.031  34.747  0.00  0.00    -0.532 OA
ATOM     30  O5  non d   1      37.594  34.240  32.565  0.00  0.00    -0.532 OA
ENDBRANCH  23  28
ENDBRANCH  17  19
ENDBRANCH  16  17
ENDBRANCH   2  16
BRANCH   1  31
ATOM     31  O1  non d   1      45.924  35.222  32.597  0.00  0.00    -0.351 OA
ATOM     32  C1  non d   1      45.505  36.194  31.637  0.00  0.00     0.210 C 
ENDBRANCH   1  31
BRANCH  15  33
ATOM     33  O14 non d   1      48.241  34.339  31.321  0.00  0.00    -0.357 OA
ATOM     34  H18 non d   1      48.147  35.128  31.887  0.00  0.00     0.217 HD
ENDBRANCH  15  33
BRANCH  11  35
ATOM     35  C18 non d   1      51.222  33.296  28.466  0.00  0.00     0.198 C 
BRANCH  35  36
ATOM     36  O12 non d   1      51.288  33.239  27.040  0.00  0.00    -0.398 OA
ATOM     37  H16 non d   1      52.209  33.015  26.812  0.00  0.00     0.209 HD
ENDBRANCH  35  36
ENDBRANCH  11  35
BRANCH   9  38
ATOM     38  O10 non d   1      48.648  29.247  27.321  0.00  0.00    -0.390 OA
ATOM     39  H10 non d   1      48.732  28.313  27.599  0.00  0.00     0.210 HD
ENDBRANCH   9  38
BRANCH  10  40
ATOM     40  O11 non d   1      51.234  30.455  27.430  0.00  0.00    -0.390 OA
ATOM     41  H12 non d   1      51.070  29.499  27.562  0.00  0.00     0.210 HD
ENDBRANCH  10  40
TORSDOF 11
ENDMDL
MODEL 9
REMARK VINA RESULT:    -8.481      1.935      3.861
REMARK INTER + INTRA:         -13.863
REMARK INTER:                 -12.710
REMARK INTRA:                  -1.153
REMARK UNBOUND:                -0.920
REMARK  11 active torsions:
REMARK  status: ('A' for Active; 'I' for Inactive)
REMARK    1  A    between atoms: O1_2  and  C2_3 
REMARK    2  A    between atoms: C3_4  and  O2_5 
REMARK    3  A    between atoms: O2_5  and  C4_6 
REMARK    4  A    between atoms: C4_6  and  C5_8 
REMARK    5  A    between atoms: C7_10  and  N2_17 
REMARK    6  A    between atoms: C9_12  and  N1_14 
REMARK    7  A    between atoms: C15_26  and  O10_27 
REMARK    8  A    between atoms: C16_28  and  O11_29 
REMARK    9  A    between atoms: C17_30  and  C18_31 
REMARK   10  A    between atoms: C18_31  and  O12_32 
REMARK   11  A    between atoms: C21_36  and  O14_37 
ROOT
ATOM      1  C2  non d   1      45.933  33.962  32.116  0.00  0.00     0.136 A 
ATOM      2  C3  non d   1      44.843  33.160  32.189  0.00  0.00     0.116 A 
ATOM      3  C11 non d   1      44.878  31.919  31.672  0.00  0.00     0.058 A 
ATOM      4  C12 non d   1      46.003  31.458  31.088  0.00  0.00     0.054 A 
ATOM      5  C13 non d   1      45.971  30.054  30.570  0.00  0.00     0.294 C 
ATOM      6  O8  non d   1      45.098  29.254  30.883  0.00  0.00    -0.259 OA
ATOM      7  O9  non d   1      46.984  29.691  29.740  0.00  0.00    -0.306 OA
ATOM      8  C14 non d   1      47.832  30.721  29.203  0.00  0.00     0.197 C 
ATOM      9  C15 non d   1      49.031  30.057  28.533  0.00  0.00     0.181 C 
ATOM     10  C16 non d   1      50.020  31.114  28.030  0.00  0.00     0.180 C 
ATOM     11  C17 non d   1      50.364  32.111  29.150  0.00  0.00     0.177 C 
ATOM     12  O13 non d   1      49.173  32.660  29.758  0.00  0.00    -0.368 OA
ATOM     13  C19 non d   1      48.327  31.645  30.313  0.00  0.00     0.191 C 
ATOM     14  C20 non d   1      47.110  32.240  31.003  0.00  0.00     0.026 A 
ATOM     15  C21 non d   1      47.062  33.504  31.510  0.00  0.00     0.112 A 
ENDROOT
BRANCH   2  16
ATOM     16  O2  non d   1      43.645  33.623  32.776  0.00  0.00    -0.272 OA
BRANCH  16  17
ATOM     17  C4  non d   1      42.555  33.477  31.966  0.00  0.00     0.298 C 
ATOM     18  O3  non d   1      42.472  33.758  30.777  0.00  0.00    -0.259 OA
BRANCH  17  19
ATOM     19  C5  non d   1      41.398  32.950  32.760  0.00  0.00     0.044 A 
ATOM     20  C6  non d   1      40.231  33.629  32.873  0.00  0.00     0.053 A 
ATOM     21  C7  non d   1      39.232  33.100  33.614  0.00  0.00     0.106 A 
ATOM     22  C8  non d   1      39.364  31.914  34.247  0.00  0.00     0.072 A 
ATOM     23  C9  non d   1      40.539  31.261  34.121  0.00  0.00     0.106 A 
ATOM     24  C10 non d   1      41.558  31.762  33.389  0.00  0.00     0.053 A 
BRANCH  21  25
ATOM     25  N2  non d   1      37.967  33.838  33.735  0.00  0.00    -0.116 N 
ATOM     26  O6  non d   1      37.531  34.053  34.873  0.00  0.00    -0.532 OA
ATOM     27  O7  non d   1      37.407  34.201  32.691  0.00  0.00    -0.532 OA
ENDBRANCH  21  25
BRANCH  23  28
ATOM     28  N1  non d   1      40.714  29.969  34.798  0.00  0.00    -0.116 N 
ATOM     29  O4  non d   1      41.153  29.022  34.130  0.00  0.00    -0.532 OA
ATOM     30  O5  non d   1      40.416  29.899  35.998  0.00  0.00    -0.532 OA
ENDBRANCH  23  28
ENDBRANCH  17  19
ENDBRANCH  16  17
ENDBRANCH   2  16
BRANCH   1  31
ATOM     31  O1  non d   1      45.825  35.248  32.643  0.00  0.00    -0.351 OA
ATOM     32  C1  non d   1      45.422  36.222  31.678  0.00  0.00     0.210 C 
ENDBRANCH   1  31
BRANCH  15  33
ATOM     33  O14 non d   1      48.159  34.350  31.412  0.00  0.00    -0.357 OA
ATOM     34  H18 non d   1      47.949  35.253  31.716  0.00  0.00     0.217 HD
ENDBRANCH  15  33
BRANCH  11  35
ATOM     35  C18 non d   1      51.188  33.290  28.614  0.00  0.00     0.198 C 
BRANCH  35  36
ATOM     36  O12 non d   1      51.226  33.270  27.186  0.00  0.00    -0.398 OA
ATOM     37  H16 non d   1      50.909  34.141  26.886  0.00  0.00     0.209 HD
ENDBRANCH  35  36
ENDBRANCH  11  35
BRANCH   9  38
ATOM     38  O10 non d   1      48.610  29.258  27.418  0.00  0.00    -0.390 OA
ATOM     39  H10 non d   1      49.399  28.772  27.106  0.00  0.00     0.210 HD
ENDBRANCH   9  38
BRANCH  10  40
ATOM     40  O11 non d   1      51.201  30.449  27.577  0.00  0.00    -0.390 OA
ATOM     41  H12 non d   1      50.959  29.503  27.512  0.00  0.00     0.210 HD
ENDBRANCH  10  40
TORSDOF 11
ENDMDL
