MODEL 1
REMARK VINA RESULT:    -9.349      0.000      0.000
REMARK INTER + INTRA:         -18.905
REMARK INTER:                 -16.727
REMARK INTRA:                  -2.178
REMARK UNBOUND:                -2.178
REMARK  15 active torsions:
REMARK  status: ('A' for Active; 'I' for Inactive)
REMARK    1  A    between atoms: O1_2  and  C2_3 
REMARK    2  A    between atoms: C3_4  and  O2_5 
REMARK    3  A    between atoms: O2_5  and  C4_6 
REMARK    4  A    between atoms: C4_6  and  C5_8 
REMARK    5  A    between atoms: C7_10  and  N2_17 
REMARK    6  A    between atoms: C9_12  and  N1_14 
REMARK    7  A    between atoms: C15_26  and  O10_27 
REMARK    8  A    between atoms: C16_28  and  O11_29 
REMARK    9  A    between atoms: C17_30  and  C18_31 
REMARK   10  A    between atoms: C18_31  and  O12_32 
REMARK   11  A    between atoms: C21_36  and  O14_37 
REMARK   12  A    between atoms: O14_37  and  C22_38 
REMARK   13  A    between atoms: C22_38  and  C23_39 
REMARK   14  A    between atoms: C25_42  and  N4_49 
REMARK   15  A    between atoms: N3_46  and  C28_45 
ROOT
ATOM      1  C2  non d   1      47.018  30.073  30.742  0.00  0.00     0.137 A 
ATOM      2  C3  non d   1      48.088  29.456  30.188  0.00  0.00     0.116 A 
ATOM      3  C11 non d   1      49.327  29.933  30.414  0.00  0.00     0.058 A 
ATOM      4  C12 non d   1      49.507  31.025  31.184  0.00  0.00     0.054 A 
ATOM      5  C13 non d   1      50.912  31.502  31.364  0.00  0.00     0.294 C 
ATOM      6  O8  non d   1      51.884  30.794  31.137  0.00  0.00    -0.259 OA
ATOM      7  O9  non d   1      51.064  32.782  31.799  0.00  0.00    -0.306 OA
ATOM      8  C14 non d   1      49.893  33.615  31.922  0.00  0.00     0.197 C 
ATOM      9  C15 non d   1      50.282  34.857  32.717  0.00  0.00     0.181 C 
ATOM     10  C16 non d   1      49.052  35.723  32.998  0.00  0.00     0.180 C 
ATOM     11  C17 non d   1      47.955  34.872  33.649  0.00  0.00     0.177 C 
ATOM     12  O13 non d   1      47.649  33.708  32.854  0.00  0.00    -0.368 OA
ATOM     13  C19 non d   1      48.774  32.858  32.642  0.00  0.00     0.191 C 
ATOM     14  C20 non d   1      48.454  31.642  31.782  0.00  0.00     0.026 A 
ATOM     15  C21 non d   1      47.204  31.144  31.559  0.00  0.00     0.125 A 
ENDROOT
BRANCH   2  16
ATOM     16  O2  non d   1      47.915  28.294  29.406  0.00  0.00    -0.272 OA
BRANCH  16  17
ATOM     17  C4  non d   1      48.822  27.310  29.675  0.00  0.00     0.298 C 
ATOM     18  O3  non d   1      49.900  27.130  29.124  0.00  0.00    -0.259 OA
BRANCH  17  19
ATOM     19  C5  non d   1      48.330  26.457  30.803  0.00  0.00     0.044 A 
ATOM     20  C6  non d   1      48.610  26.736  32.097  0.00  0.00     0.053 A 
ATOM     21  C7  non d   1      48.125  25.927  33.065  0.00  0.00     0.106 A 
ATOM     22  C8  non d   1      47.366  24.847  32.779  0.00  0.00     0.072 A 
ATOM     23  C9  non d   1      47.099  24.592  31.480  0.00  0.00     0.106 A 
ATOM     24  C10 non d   1      47.566  25.382  30.489  0.00  0.00     0.053 A 
BRANCH  21  25
ATOM     25  N2  non d   1      48.427  26.235  34.470  0.00  0.00    -0.116 N 
ATOM     26  O6  non d   1      48.374  27.420  34.824  0.00  0.00    -0.532 OA
ATOM     27  O7  non d   1      48.715  25.293  35.220  0.00  0.00    -0.532 OA
ENDBRANCH  21  25
BRANCH  23  28
ATOM     28  N1  non d   1      46.276  23.425  31.136  0.00  0.00    -0.116 N 
ATOM     29  O4  non d   1      45.608  22.903  32.039  0.00  0.00    -0.532 OA
ATOM     30  O5  non d   1      46.298  23.027  29.963  0.00  0.00    -0.532 OA
ENDBRANCH  23  28
ENDBRANCH  17  19
ENDBRANCH  16  17
ENDBRANCH   2  16
BRANCH   1  31
ATOM     31  O1  non d   1      45.742  29.559  30.515  0.00  0.00    -0.351 OA
ATOM     32  C1  non d   1      45.402  28.563  31.483  0.00  0.00     0.210 C 
ENDBRANCH   1  31
BRANCH  15  33
ATOM     33  O14 non d   1      46.065  31.735  32.148  0.00  0.00    -0.271 OA
BRANCH  33  34
ATOM     34  C22 non d   1      45.323  32.470  31.270  0.00  0.00     0.298 C 
ATOM     35  O15 non d   1      45.733  33.160  30.346  0.00  0.00    -0.259 OA
BRANCH  34  36
ATOM     36  C23 non d   1      43.872  32.343  31.613  0.00  0.00     0.044 A 
ATOM     37  C26 non d   1      43.529  31.484  32.602  0.00  0.00     0.053 A 
ATOM     38  C25 non d   1      42.228  31.353  32.941  0.00  0.00     0.106 A 
ATOM     39  C24 non d   1      41.258  32.065  32.328  0.00  0.00     0.072 A 
ATOM     40  C28 non d   1      41.629  32.919  31.352  0.00  0.00     0.106 A 
ATOM     41  C27 non d   1      42.918  33.066  30.978  0.00  0.00     0.053 A 
BRANCH  38  42
ATOM     42  N4  non d   1      41.859  30.417  34.011  0.00  0.00    -0.116 N 
ATOM     43  O18 non d   1      41.509  29.275  33.682  0.00  0.00    -0.532 OA
ATOM     44  O19 non d   1      41.917  30.822  35.180  0.00  0.00    -0.532 OA
ENDBRANCH  38  42
BRANCH  40  45
ATOM     45  N3  non d   1      40.603  33.730  30.692  0.00  0.00    -0.116 N 
ATOM     46  O16 non d   1      40.933  34.360  29.676  0.00  0.00    -0.532 OA
ATOM     47  O17 non d   1      39.474  33.748  31.197  0.00  0.00    -0.532 OA
ENDBRANCH  40  45
ENDBRANCH  34  36
ENDBRANCH  33  34
ENDBRANCH  15  33
BRANCH  11  48
ATOM     48  C18 non d   1      46.666  35.683  33.850  0.00  0.00     0.198 C 
BRANCH  48  49
ATOM     49  O12 non d   1      45.730  35.414  32.808  0.00  0.00    -0.398 OA
ATOM     50  H16 non d   1      45.428  34.490  32.923  0.00  0.00     0.209 HD
ENDBRANCH  48  49
ENDBRANCH  11  48
BRANCH   9  51
ATOM     51  O10 non d   1      51.242  35.644  31.995  0.00  0.00    -0.390 OA
ATOM     52  H10 non d   1      51.686  35.039  31.370  0.00  0.00     0.210 HD
ENDBRANCH   9  51
BRANCH  10  53
ATOM     53  O11 non d   1      49.442  36.793  33.865  0.00  0.00    -0.390 OA
ATOM     54  H12 non d   1      49.870  37.452  33.279  0.00  0.00     0.210 HD
ENDBRANCH  10  53
TORSDOF 15
ENDMDL
MODEL 2
REMARK VINA RESULT:    -9.321      2.248      7.742
REMARK INTER + INTRA:         -18.856
REMARK INTER:                 -16.893
REMARK INTRA:                  -1.963
REMARK UNBOUND:                -2.178
REMARK  15 active torsions:
REMARK  status: ('A' for Active; 'I' for Inactive)
REMARK    1  A    between atoms: O1_2  and  C2_3 
REMARK    2  A    between atoms: C3_4  and  O2_5 
REMARK    3  A    between atoms: O2_5  and  C4_6 
REMARK    4  A    between atoms: C4_6  and  C5_8 
REMARK    5  A    between atoms: C7_10  and  N2_17 
REMARK    6  A    between atoms: C9_12  and  N1_14 
REMARK    7  A    between atoms: C15_26  and  O10_27 
REMARK    8  A    between atoms: C16_28  and  O11_29 
REMARK    9  A    between atoms: C17_30  and  C18_31 
REMARK   10  A    between atoms: C18_31  and  O12_32 
REMARK   11  A    between atoms: C21_36  and  O14_37 
REMARK   12  A    between atoms: O14_37  and  C22_38 
REMARK   13  A    between atoms: C22_38  and  C23_39 
REMARK   14  A    between atoms: C25_42  and  N4_49 
REMARK   15  A    between atoms: N3_46  and  C28_45 
ROOT
ATOM      1  C2  non d   1      45.439  32.389  31.373  0.00  0.00     0.137 A 
ATOM      2  C3  non d   1      44.538  33.374  31.143  0.00  0.00     0.116 A 
ATOM      3  C11 non d   1      44.931  34.518  30.553  0.00  0.00     0.058 A 
ATOM      4  C12 non d   1      46.220  34.691  30.194  0.00  0.00     0.054 A 
ATOM      5  C13 non d   1      46.577  36.000  29.566  0.00  0.00     0.294 C 
ATOM      6  O8  non d   1      45.741  36.750  29.080  0.00  0.00    -0.259 OA
ATOM      7  O9  non d   1      47.898  36.326  29.560  0.00  0.00    -0.306 OA
ATOM      8  C14 non d   1      48.825  35.473  30.263  0.00  0.00     0.197 C 
ATOM      9  C15 non d   1      50.237  35.864  29.838  0.00  0.00     0.181 C 
ATOM     10  C16 non d   1      51.265  34.909  30.448  0.00  0.00     0.180 C 
ATOM     11  C17 non d   1      50.885  33.459  30.125  0.00  0.00     0.177 C 
ATOM     12  O13 non d   1      49.534  33.164  30.537  0.00  0.00    -0.368 OA
ATOM     13  C19 non d   1      48.560  34.005  29.923  0.00  0.00     0.191 C 
ATOM     14  C20 non d   1      47.137  33.706  30.379  0.00  0.00     0.026 A 
ATOM     15  C21 non d   1      46.727  32.545  30.965  0.00  0.00     0.125 A 
ENDROOT
BRANCH   2  16
ATOM     16  O2  non d   1      43.181  33.192  31.486  0.00  0.00    -0.272 OA
BRANCH  16  17
ATOM     17  C4  non d   1      42.841  33.732  32.694  0.00  0.00     0.298 C 
ATOM     18  O3  non d   1      43.385  34.670  33.261  0.00  0.00    -0.259 OA
BRANCH  17  19
ATOM     19  C5  non d   1      41.646  33.023  33.251  0.00  0.00     0.044 A 
ATOM     20  C6  non d   1      41.725  31.781  33.786  0.00  0.00     0.053 A 
ATOM     21  C7  non d   1      40.607  31.204  34.278  0.00  0.00     0.106 A 
ATOM     22  C8  non d   1      39.410  31.831  34.254  0.00  0.00     0.072 A 
ATOM     23  C9  non d   1      39.359  33.069  33.718  0.00  0.00     0.106 A 
ATOM     24  C10 non d   1      40.459  33.675  33.219  0.00  0.00     0.053 A 
BRANCH  21  25
ATOM     25  N2  non d   1      40.696  29.859  34.863  0.00  0.00    -0.116 N 
ATOM     26  O6  non d   1      41.182  28.959  34.166  0.00  0.00    -0.532 OA
ATOM     27  O7  non d   1      40.282  29.703  36.019  0.00  0.00    -0.532 OA
ENDBRANCH  21  25
BRANCH  23  28
ATOM     28  N1  non d   1      38.072  33.777  33.677  0.00  0.00    -0.116 N 
ATOM     29  O4  non d   1      37.586  34.027  32.566  0.00  0.00    -0.532 OA
ATOM     30  O5  non d   1      37.548  34.087  34.756  0.00  0.00    -0.532 OA
ENDBRANCH  23  28
ENDBRANCH  17  19
ENDBRANCH  16  17
ENDBRANCH   2  16
BRANCH   1  31
ATOM     31  O1  non d   1      45.015  31.203  31.969  0.00  0.00    -0.351 OA
ATOM     32  C1  non d   1      44.278  30.393  31.049  0.00  0.00     0.210 C 
ENDBRANCH   1  31
BRANCH  15  33
ATOM     33  O14 non d   1      47.626  31.480  31.188  0.00  0.00    -0.271 OA
BRANCH  33  34
ATOM     34  C22 non d   1      47.611  30.543  30.197  0.00  0.00     0.298 C 
ATOM     35  O15 non d   1      47.433  30.730  29.001  0.00  0.00    -0.259 OA
BRANCH  34  36
ATOM     36  C23 non d   1      47.822  29.185  30.788  0.00  0.00     0.044 A 
ATOM     37  C26 non d   1      47.826  29.078  32.138  0.00  0.00     0.053 A 
ATOM     38  C25 non d   1      48.005  27.864  32.703  0.00  0.00     0.106 A 
ATOM     39  C24 non d   1      48.169  26.749  31.958  0.00  0.00     0.072 A 
ATOM     40  C28 non d   1      48.153  26.885  30.616  0.00  0.00     0.106 A 
ATOM     41  C27 non d   1      47.989  28.084  30.017  0.00  0.00     0.053 A 
BRANCH  38  42
ATOM     42  N4  non d   1      48.012  27.750  34.167  0.00  0.00    -0.116 N 
ATOM     43  O18 non d   1      47.423  28.626  34.816  0.00  0.00    -0.532 OA
ATOM     44  O19 non d   1      48.608  26.788  34.670  0.00  0.00    -0.532 OA
ENDBRANCH  38  42
BRANCH  40  45
ATOM     45  N3  non d   1      48.295  25.690  29.781  0.00  0.00    -0.116 N 
ATOM     46  O16 non d   1      48.794  25.830  28.654  0.00  0.00    -0.532 OA
ATOM     47  O17 non d   1      47.894  24.615  30.246  0.00  0.00    -0.532 OA
ENDBRANCH  40  45
ENDBRANCH  34  36
ENDBRANCH  33  34
ENDBRANCH  15  33
BRANCH  11  48
ATOM     48  C18 non d   1      51.836  32.467  30.809  0.00  0.00     0.198 C 
BRANCH  48  49
ATOM     49  O12 non d   1      52.670  33.134  31.755  0.00  0.00    -0.398 OA
ATOM     50  H16 non d   1      52.853  32.500  32.477  0.00  0.00     0.209 HD
ENDBRANCH  48  49
ENDBRANCH  11  48
BRANCH   9  51
ATOM     51  O10 non d   1      50.545  37.202  30.261  0.00  0.00    -0.390 OA
ATOM     52  H10 non d   1      51.219  37.543  29.642  0.00  0.00     0.210 HD
ENDBRANCH   9  51
BRANCH  10  53
ATOM     53  O11 non d   1      52.552  35.226  29.907  0.00  0.00    -0.390 OA
ATOM     54  H12 non d   1      53.034  34.374  29.880  0.00  0.00     0.210 HD
ENDBRANCH  10  53
TORSDOF 15
ENDMDL
MODEL 3
REMARK VINA RESULT:    -9.314      0.080      2.106
REMARK INTER + INTRA:         -18.842
REMARK INTER:                 -16.716
REMARK INTRA:                  -2.126
REMARK UNBOUND:                -2.178
REMARK  15 active torsions:
REMARK  status: ('A' for Active; 'I' for Inactive)
REMARK    1  A    between atoms: O1_2  and  C2_3 
REMARK    2  A    between atoms: C3_4  and  O2_5 
REMARK    3  A    between atoms: O2_5  and  C4_6 
REMARK    4  A    between atoms: C4_6  and  C5_8 
REMARK    5  A    between atoms: C7_10  and  N2_17 
REMARK    6  A    between atoms: C9_12  and  N1_14 
REMARK    7  A    between atoms: C15_26  and  O10_27 
REMARK    8  A    between atoms: C16_28  and  O11_29 
REMARK    9  A    between atoms: C17_30  and  C18_31 
REMARK   10  A    between atoms: C18_31  and  O12_32 
REMARK   11  A    between atoms: C21_36  and  O14_37 
REMARK   12  A    between atoms: O14_37  and  C22_38 
REMARK   13  A    between atoms: C22_38  and  C23_39 
REMARK   14  A    between atoms: C25_42  and  N4_49 
REMARK   15  A    between atoms: N3_46  and  C28_45 
ROOT
ATOM      1  C2  non d   1      46.995  30.029  30.795  0.00  0.00     0.137 A 
ATOM      2  C3  non d   1      48.061  29.408  30.237  0.00  0.00     0.116 A 
ATOM      3  C11 non d   1      49.303  29.882  30.454  0.00  0.00     0.058 A 
ATOM      4  C12 non d   1      49.489  30.976  31.218  0.00  0.00     0.054 A 
ATOM      5  C13 non d   1      50.897  31.451  31.388  0.00  0.00     0.294 C 
ATOM      6  O8  non d   1      51.866  30.739  31.158  0.00  0.00    -0.259 OA
ATOM      7  O9  non d   1      51.054  32.732  31.816  0.00  0.00    -0.306 OA
ATOM      8  C14 non d   1      49.886  33.568  31.943  0.00  0.00     0.197 C 
ATOM      9  C15 non d   1      50.284  34.813  32.731  0.00  0.00     0.181 C 
ATOM     10  C16 non d   1      49.057  35.683  33.016  0.00  0.00     0.180 C 
ATOM     11  C17 non d   1      47.962  34.837  33.677  0.00  0.00     0.177 C 
ATOM     12  O13 non d   1      47.648  33.670  32.889  0.00  0.00    -0.368 OA
ATOM     13  C19 non d   1      48.770  32.818  32.673  0.00  0.00     0.191 C 
ATOM     14  C20 non d   1      48.442  31.598  31.820  0.00  0.00     0.026 A 
ATOM     15  C21 non d   1      47.189  31.103  31.607  0.00  0.00     0.125 A 
ENDROOT
BRANCH   2  16
ATOM     16  O2  non d   1      47.881  28.243  29.460  0.00  0.00    -0.272 OA
BRANCH  16  17
ATOM     17  C4  non d   1      48.782  27.254  29.734  0.00  0.00     0.298 C 
ATOM     18  O3  non d   1      49.887  27.104  29.230  0.00  0.00    -0.259 OA
BRANCH  17  19
ATOM     19  C5  non d   1      48.242  26.352  30.800  0.00  0.00     0.044 A 
ATOM     20  C6  non d   1      47.480  25.270  30.515  0.00  0.00     0.053 A 
ATOM     21  C7  non d   1      47.033  24.494  31.527  0.00  0.00     0.106 A 
ATOM     22  C8  non d   1      47.325  24.766  32.818  0.00  0.00     0.072 A 
ATOM     23  C9  non d   1      48.089  25.850  33.075  0.00  0.00     0.106 A 
ATOM     24  C10 non d   1      48.553  26.644  32.086  0.00  0.00     0.053 A 
BRANCH  21  25
ATOM     25  N2  non d   1      46.211  23.317  31.215  0.00  0.00    -0.116 N 
ATOM     26  O6  non d   1      45.605  22.773  32.148  0.00  0.00    -0.532 OA
ATOM     27  O7  non d   1      46.168  22.938  30.037  0.00  0.00    -0.532 OA
ENDBRANCH  21  25
BRANCH  23  28
ATOM     28  N1  non d   1      48.424  26.173  34.468  0.00  0.00    -0.116 N 
ATOM     29  O4  non d   1      48.724  25.238  35.221  0.00  0.00    -0.532 OA
ATOM     30  O5  non d   1      48.384  27.363  34.811  0.00  0.00    -0.532 OA
ENDBRANCH  23  28
ENDBRANCH  17  19
ENDBRANCH  16  17
ENDBRANCH   2  16
BRANCH   1  31
ATOM     31  O1  non d   1      45.717  29.517  30.578  0.00  0.00    -0.351 OA
ATOM     32  C1  non d   1      45.384  28.519  31.546  0.00  0.00     0.210 C 
ENDBRANCH   1  31
BRANCH  15  33
ATOM     33  O14 non d   1      46.056  31.699  32.199  0.00  0.00    -0.271 OA
BRANCH  33  34
ATOM     34  C22 non d   1      45.320  32.447  31.327  0.00  0.00     0.298 C 
ATOM     35  O15 non d   1      45.737  33.146  30.413  0.00  0.00    -0.259 OA
BRANCH  34  36
ATOM     36  C23 non d   1      43.867  32.323  31.663  0.00  0.00     0.044 A 
ATOM     37  C26 non d   1      43.517  31.457  32.643  0.00  0.00     0.053 A 
ATOM     38  C25 non d   1      42.214  31.329  32.976  0.00  0.00     0.106 A 
ATOM     39  C24 non d   1      41.249  32.050  32.366  0.00  0.00     0.072 A 
ATOM     40  C28 non d   1      41.628  32.912  31.400  0.00  0.00     0.106 A 
ATOM     41  C27 non d   1      42.919  33.057  31.032  0.00  0.00     0.053 A 
BRANCH  38  42
ATOM     42  N4  non d   1      41.837  30.385  34.036  0.00  0.00    -0.116 N 
ATOM     43  O18 non d   1      41.861  30.793  35.206  0.00  0.00    -0.532 OA
ATOM     44  O19 non d   1      41.517  29.236  33.702  0.00  0.00    -0.532 OA
ENDBRANCH  38  42
BRANCH  40  45
ATOM     45  N3  non d   1      40.608  33.733  30.743  0.00  0.00    -0.116 N 
ATOM     46  O16 non d   1      40.936  34.347  29.716  0.00  0.00    -0.532 OA
ATOM     47  O17 non d   1      39.485  33.776  31.262  0.00  0.00    -0.532 OA
ENDBRANCH  40  45
ENDBRANCH  34  36
ENDBRANCH  33  34
ENDBRANCH  15  33
BRANCH  11  48
ATOM     48  C18 non d   1      46.676  35.652  33.883  0.00  0.00     0.198 C 
BRANCH  48  49
ATOM     49  O12 non d   1      45.783  35.474  32.785  0.00  0.00    -0.398 OA
ATOM     50  H16 non d   1      46.273  34.994  32.088  0.00  0.00     0.209 HD
ENDBRANCH  48  49
ENDBRANCH  11  48
BRANCH   9  51
ATOM     51  O10 non d   1      51.241  35.595  32.000  0.00  0.00    -0.390 OA
ATOM     52  H10 non d   1      51.716  34.976  31.412  0.00  0.00     0.210 HD
ENDBRANCH   9  51
BRANCH  10  53
ATOM     53  O11 non d   1      49.455  36.755  33.876  0.00  0.00    -0.390 OA
ATOM     54  H12 non d   1      48.618  37.170  34.171  0.00  0.00     0.210 HD
ENDBRANCH  10  53
TORSDOF 15
ENDMDL
MODEL 4
REMARK VINA RESULT:    -9.279      0.107      2.099
REMARK INTER + INTRA:         -18.780
REMARK INTER:                 -16.655
REMARK INTRA:                  -2.125
REMARK UNBOUND:                -2.178
REMARK  15 active torsions:
REMARK  status: ('A' for Active; 'I' for Inactive)
REMARK    1  A    between atoms: O1_2  and  C2_3 
REMARK    2  A    between atoms: C3_4  and  O2_5 
REMARK    3  A    between atoms: O2_5  and  C4_6 
REMARK    4  A    between atoms: C4_6  and  C5_8 
REMARK    5  A    between atoms: C7_10  and  N2_17 
REMARK    6  A    between atoms: C9_12  and  N1_14 
REMARK    7  A    between atoms: C15_26  and  O10_27 
REMARK    8  A    between atoms: C16_28  and  O11_29 
REMARK    9  A    between atoms: C17_30  and  C18_31 
REMARK   10  A    between atoms: C18_31  and  O12_32 
REMARK   11  A    between atoms: C21_36  and  O14_37 
REMARK   12  A    between atoms: O14_37  and  C22_38 
REMARK   13  A    between atoms: C22_38  and  C23_39 
REMARK   14  A    between atoms: C25_42  and  N4_49 
REMARK   15  A    between atoms: N3_46  and  C28_45 
ROOT
ATOM      1  C2  non d   1      46.996  30.052  30.770  0.00  0.00     0.137 A 
ATOM      2  C3  non d   1      48.060  29.444  30.195  0.00  0.00     0.116 A 
ATOM      3  C11 non d   1      49.300  29.928  30.397  0.00  0.00     0.058 A 
ATOM      4  C12 non d   1      49.487  31.020  31.165  0.00  0.00     0.054 A 
ATOM      5  C13 non d   1      50.892  31.507  31.319  0.00  0.00     0.294 C 
ATOM      6  O8  non d   1      51.865  30.806  31.071  0.00  0.00    -0.259 OA
ATOM      7  O9  non d   1      51.044  32.787  31.752  0.00  0.00    -0.306 OA
ATOM      8  C14 non d   1      49.870  33.612  31.899  0.00  0.00     0.197 C 
ATOM      9  C15 non d   1      50.266  34.855  32.689  0.00  0.00     0.181 C 
ATOM     10  C16 non d   1      49.036  35.712  32.995  0.00  0.00     0.180 C 
ATOM     11  C17 non d   1      47.957  34.853  33.666  0.00  0.00     0.177 C 
ATOM     12  O13 non d   1      47.644  33.688  32.875  0.00  0.00    -0.368 OA
ATOM     13  C19 non d   1      48.770  32.847  32.640  0.00  0.00     0.191 C 
ATOM     14  C20 non d   1      48.442  31.629  31.785  0.00  0.00     0.026 A 
ATOM     15  C21 non d   1      47.191  31.123  31.585  0.00  0.00     0.125 A 
ENDROOT
BRANCH   2  16
ATOM     16  O2  non d   1      47.880  28.282  29.414  0.00  0.00    -0.272 OA
BRANCH  16  17
ATOM     17  C4  non d   1      48.793  27.299  29.671  0.00  0.00     0.298 C 
ATOM     18  O3  non d   1      49.866  27.124  29.110  0.00  0.00    -0.259 OA
BRANCH  17  19
ATOM     19  C5  non d   1      48.313  26.440  30.800  0.00  0.00     0.044 A 
ATOM     20  C6  non d   1      48.594  26.723  32.094  0.00  0.00     0.053 A 
ATOM     21  C7  non d   1      48.121  25.909  33.064  0.00  0.00     0.106 A 
ATOM     22  C8  non d   1      47.374  24.820  32.780  0.00  0.00     0.072 A 
ATOM     23  C9  non d   1      47.105  24.562  31.482  0.00  0.00     0.106 A 
ATOM     24  C10 non d   1      47.561  25.357  30.489  0.00  0.00     0.053 A 
BRANCH  21  25
ATOM     25  N2  non d   1      48.424  26.221  34.468  0.00  0.00    -0.116 N 
ATOM     26  O6  non d   1      48.362  27.406  34.821  0.00  0.00    -0.532 OA
ATOM     27  O7  non d   1      48.720  25.281  35.217  0.00  0.00    -0.532 OA
ENDBRANCH  21  25
BRANCH  23  28
ATOM     28  N1  non d   1      46.295  23.386  31.140  0.00  0.00    -0.116 N 
ATOM     29  O4  non d   1      46.305  22.999  29.964  0.00  0.00    -0.532 OA
ATOM     30  O5  non d   1      45.645  22.848  32.048  0.00  0.00    -0.532 OA
ENDBRANCH  23  28
ENDBRANCH  17  19
ENDBRANCH  16  17
ENDBRANCH   2  16
BRANCH   1  31
ATOM     31  O1  non d   1      45.720  29.530  30.567  0.00  0.00    -0.351 OA
ATOM     32  C1  non d   1      45.410  28.521  31.532  0.00  0.00     0.210 C 
ENDBRANCH   1  31
BRANCH  15  33
ATOM     33  O14 non d   1      46.060  31.705  32.196  0.00  0.00    -0.271 OA
BRANCH  33  34
ATOM     34  C22 non d   1      45.246  32.358  31.317  0.00  0.00     0.298 C 
ATOM     35  O15 non d   1      45.578  32.976  30.315  0.00  0.00    -0.259 OA
BRANCH  34  36
ATOM     36  C23 non d   1      43.824  32.239  31.769  0.00  0.00     0.044 A 
ATOM     37  C26 non d   1      42.893  32.984  31.127  0.00  0.00     0.053 A 
ATOM     38  C25 non d   1      41.600  32.893  31.505  0.00  0.00     0.106 A 
ATOM     39  C24 non d   1      41.205  32.069  32.500  0.00  0.00     0.072 A 
ATOM     40  C28 non d   1      42.153  31.332  33.116  0.00  0.00     0.106 A 
ATOM     41  C27 non d   1      43.457  31.407  32.773  0.00  0.00     0.053 A 
BRANCH  38  42
ATOM     42  N4  non d   1      40.592  33.706  30.811  0.00  0.00    -0.116 N 
ATOM     43  O18 non d   1      39.413  33.594  31.174  0.00  0.00    -0.532 OA
ATOM     44  O19 non d   1      40.978  34.454  29.903  0.00  0.00    -0.532 OA
ENDBRANCH  38  42
BRANCH  40  45
ATOM     45  N3  non d   1      41.752  30.404  34.176  0.00  0.00    -0.116 N 
ATOM     46  O16 non d   1      41.336  29.286  33.835  0.00  0.00    -0.532 OA
ATOM     47  O17 non d   1      41.838  30.798  35.346  0.00  0.00    -0.532 OA
ENDBRANCH  40  45
ENDBRANCH  34  36
ENDBRANCH  33  34
ENDBRANCH  15  33
BRANCH  11  48
ATOM     48  C18 non d   1      46.667  35.655  33.893  0.00  0.00     0.198 C 
BRANCH  48  49
ATOM     49  O12 non d   1      45.787  35.526  32.778  0.00  0.00    -0.398 OA
ATOM     50  H16 non d   1      44.905  35.289  33.132  0.00  0.00     0.209 HD
ENDBRANCH  48  49
ENDBRANCH  11  48
BRANCH   9  51
ATOM     51  O10 non d   1      51.206  35.651  31.949  0.00  0.00    -0.390 OA
ATOM     52  H10 non d   1      50.722  36.015  31.183  0.00  0.00     0.210 HD
ENDBRANCH   9  51
BRANCH  10  53
ATOM     53  O11 non d   1      49.435  36.784  33.855  0.00  0.00    -0.390 OA
ATOM     54  H12 non d   1      49.642  36.359  34.713  0.00  0.00     0.210 HD
ENDBRANCH  10  53
TORSDOF 15
ENDMDL
MODEL 5
REMARK VINA RESULT:    -9.256      2.267      7.845
REMARK INTER + INTRA:         -18.739
REMARK INTER:                 -16.792
REMARK INTRA:                  -1.947
REMARK UNBOUND:                -2.178
REMARK  15 active torsions:
REMARK  status: ('A' for Active; 'I' for Inactive)
REMARK    1  A    between atoms: O1_2  and  C2_3 
REMARK    2  A    between atoms: C3_4  and  O2_5 
REMARK    3  A    between atoms: O2_5  and  C4_6 
REMARK    4  A    between atoms: C4_6  and  C5_8 
REMARK    5  A    between atoms: C7_10  and  N2_17 
REMARK    6  A    between atoms: C9_12  and  N1_14 
REMARK    7  A    between atoms: C15_26  and  O10_27 
REMARK    8  A    between atoms: C16_28  and  O11_29 
REMARK    9  A    between atoms: C17_30  and  C18_31 
REMARK   10  A    between atoms: C18_31  and  O12_32 
REMARK   11  A    between atoms: C21_36  and  O14_37 
REMARK   12  A    between atoms: O14_37  and  C22_38 
REMARK   13  A    between atoms: C22_38  and  C23_39 
REMARK   14  A    between atoms: C25_42  and  N4_49 
REMARK   15  A    between atoms: N3_46  and  C28_45 
ROOT
ATOM      1  C2  non d   1      45.482  32.433  31.361  0.00  0.00     0.137 A 
ATOM      2  C3  non d   1      44.573  33.411  31.136  0.00  0.00     0.116 A 
ATOM      3  C11 non d   1      44.953  34.556  30.538  0.00  0.00     0.058 A 
ATOM      4  C12 non d   1      46.237  34.735  30.167  0.00  0.00     0.054 A 
ATOM      5  C13 non d   1      46.581  36.044  29.531  0.00  0.00     0.294 C 
ATOM      6  O8  non d   1      45.735  36.787  29.050  0.00  0.00    -0.259 OA
ATOM      7  O9  non d   1      47.899  36.378  29.512  0.00  0.00    -0.306 OA
ATOM      8  C14 non d   1      48.837  35.534  30.210  0.00  0.00     0.197 C 
ATOM      9  C15 non d   1      50.243  35.933  29.771  0.00  0.00     0.181 C 
ATOM     10  C16 non d   1      51.283  34.987  30.375  0.00  0.00     0.180 C 
ATOM     11  C17 non d   1      50.909  33.533  30.060  0.00  0.00     0.177 C 
ATOM     12  O13 non d   1      49.564  33.230  30.486  0.00  0.00    -0.368 OA
ATOM     13  C19 non d   1      48.580  34.063  29.878  0.00  0.00     0.191 C 
ATOM     14  C20 non d   1      47.163  33.757  30.347  0.00  0.00     0.026 A 
ATOM     15  C21 non d   1      46.765  32.596  30.941  0.00  0.00     0.125 A 
ENDROOT
BRANCH   2  16
ATOM     16  O2  non d   1      43.220  33.222  31.491  0.00  0.00    -0.272 OA
BRANCH  16  17
ATOM     17  C4  non d   1      42.886  33.770  32.697  0.00  0.00     0.298 C 
ATOM     18  O3  non d   1      43.439  34.704  33.260  0.00  0.00    -0.259 OA
BRANCH  17  19
ATOM     19  C5  non d   1      41.682  33.077  33.256  0.00  0.00     0.044 A 
ATOM     20  C6  non d   1      41.750  31.844  33.812  0.00  0.00     0.053 A 
ATOM     21  C7  non d   1      40.624  31.281  34.304  0.00  0.00     0.106 A 
ATOM     22  C8  non d   1      39.432  31.914  34.261  0.00  0.00     0.072 A 
ATOM     23  C9  non d   1      39.392  33.144  33.704  0.00  0.00     0.106 A 
ATOM     24  C10 non d   1      40.499  33.735  33.205  0.00  0.00     0.053 A 
BRANCH  21  25
ATOM     25  N2  non d   1      40.701  29.945  34.911  0.00  0.00    -0.116 N 
ATOM     26  O6  non d   1      41.126  29.017  34.210  0.00  0.00    -0.532 OA
ATOM     27  O7  non d   1      40.340  29.823  36.089  0.00  0.00    -0.532 OA
ENDBRANCH  21  25
BRANCH  23  28
ATOM     28  N1  non d   1      38.110  33.858  33.642  0.00  0.00    -0.116 N 
ATOM     29  O4  non d   1      37.502  34.047  34.704  0.00  0.00    -0.532 OA
ATOM     30  O5  non d   1      37.708  34.229  32.530  0.00  0.00    -0.532 OA
ENDBRANCH  23  28
ENDBRANCH  17  19
ENDBRANCH  16  17
ENDBRANCH   2  16
BRANCH   1  31
ATOM     31  O1  non d   1      45.070  31.246  31.965  0.00  0.00    -0.351 OA
ATOM     32  C1  non d   1      44.292  30.448  31.069  0.00  0.00     0.210 C 
ENDBRANCH   1  31
BRANCH  15  33
ATOM     33  O14 non d   1      47.673  31.537  31.160  0.00  0.00    -0.271 OA
BRANCH  33  34
ATOM     34  C22 non d   1      47.618  30.571  30.198  0.00  0.00     0.298 C 
ATOM     35  O15 non d   1      47.425  30.725  29.000  0.00  0.00    -0.259 OA
BRANCH  34  36
ATOM     36  C23 non d   1      47.807  29.227  30.829  0.00  0.00     0.044 A 
ATOM     37  C26 non d   1      47.995  28.165  30.009  0.00  0.00     0.053 A 
ATOM     38  C25 non d   1      48.177  26.940  30.547  0.00  0.00     0.106 A 
ATOM     39  C24 non d   1      48.188  26.743  31.884  0.00  0.00     0.072 A 
ATOM     40  C28 non d   1      48.006  27.820  32.676  0.00  0.00     0.106 A 
ATOM     41  C27 non d   1      47.808  29.058  32.173  0.00  0.00     0.053 A 
BRANCH  38  42
ATOM     42  N4  non d   1      48.377  25.790  29.656  0.00  0.00    -0.116 N 
ATOM     43  O18 non d   1      48.014  24.677  30.062  0.00  0.00    -0.532 OA
ATOM     44  O19 non d   1      48.898  25.997  28.552  0.00  0.00    -0.532 OA
ENDBRANCH  38  42
BRANCH  40  45
ATOM     45  N3  non d   1      48.046  27.645  34.130  0.00  0.00    -0.116 N 
ATOM     46  O16 non d   1      47.503  28.513  34.830  0.00  0.00    -0.532 OA
ATOM     47  O17 non d   1      48.633  26.649  34.571  0.00  0.00    -0.532 OA
ENDBRANCH  40  45
ENDBRANCH  34  36
ENDBRANCH  33  34
ENDBRANCH  15  33
BRANCH  11  48
ATOM     48  C18 non d   1      51.873  32.549  30.740  0.00  0.00     0.198 C 
BRANCH  48  49
ATOM     49  O12 non d   1      52.649  33.208  31.739  0.00  0.00    -0.398 OA
ATOM     50  H16 non d   1      53.009  32.515  32.329  0.00  0.00     0.209 HD
ENDBRANCH  48  49
ENDBRANCH  11  48
BRANCH   9  51
ATOM     51  O10 non d   1      50.546  37.274  30.187  0.00  0.00    -0.390 OA
ATOM     52  H10 non d   1      51.074  37.199  31.006  0.00  0.00     0.210 HD
ENDBRANCH   9  51
BRANCH  10  53
ATOM     53  O11 non d   1      52.563  35.310  29.821  0.00  0.00    -0.390 OA
ATOM     54  H12 non d   1      52.995  35.879  30.492  0.00  0.00     0.210 HD
ENDBRANCH  10  53
TORSDOF 15
ENDMDL
MODEL 6
REMARK VINA RESULT:    -9.247      2.101      3.669
REMARK INTER + INTRA:         -18.723
REMARK INTER:                 -17.225
REMARK INTRA:                  -1.499
REMARK UNBOUND:                -2.178
REMARK  15 active torsions:
REMARK  status: ('A' for Active; 'I' for Inactive)
REMARK    1  A    between atoms: O1_2  and  C2_3 
REMARK    2  A    between atoms: C3_4  and  O2_5 
REMARK    3  A    between atoms: O2_5  and  C4_6 
REMARK    4  A    between atoms: C4_6  and  C5_8 
REMARK    5  A    between atoms: C7_10  and  N2_17 
REMARK    6  A    between atoms: C9_12  and  N1_14 
REMARK    7  A    between atoms: C15_26  and  O10_27 
REMARK    8  A    between atoms: C16_28  and  O11_29 
REMARK    9  A    between atoms: C17_30  and  C18_31 
REMARK   10  A    between atoms: C18_31  and  O12_32 
REMARK   11  A    between atoms: C21_36  and  O14_37 
REMARK   12  A    between atoms: O14_37  and  C22_38 
REMARK   13  A    between atoms: C22_38  and  C23_39 
REMARK   14  A    between atoms: C25_42  and  N4_49 
REMARK   15  A    between atoms: N3_46  and  C28_45 
ROOT
ATOM      1  C2  non d   1      45.569  29.805  31.930  0.00  0.00     0.137 A 
ATOM      2  C3  non d   1      46.661  29.278  31.328  0.00  0.00     0.116 A 
ATOM      3  C11 non d   1      47.701  30.072  31.010  0.00  0.00     0.058 A 
ATOM      4  C12 non d   1      47.658  31.392  31.283  0.00  0.00     0.054 A 
ATOM      5  C13 non d   1      48.843  32.206  30.875  0.00  0.00     0.294 C 
ATOM      6  O8  non d   1      49.933  31.707  30.624  0.00  0.00    -0.259 OA
ATOM      7  O9  non d   1      48.653  33.550  30.792  0.00  0.00    -0.306 OA
ATOM      8  C14 non d   1      47.320  34.072  30.965  0.00  0.00     0.197 C 
ATOM      9  C15 non d   1      47.429  35.583  31.149  0.00  0.00     0.181 C 
ATOM     10  C16 non d   1      46.059  36.185  31.470  0.00  0.00     0.180 C 
ATOM     11  C17 non d   1      45.431  35.445  32.658  0.00  0.00     0.177 C 
ATOM     12  O13 non d   1      45.375  34.023  32.424  0.00  0.00    -0.368 OA
ATOM     13  C19 non d   1      46.655  33.440  32.189  0.00  0.00     0.191 C 
ATOM     14  C20 non d   1      46.590  31.941  31.919  0.00  0.00     0.026 A 
ATOM     15  C21 non d   1      45.548  31.127  32.250  0.00  0.00     0.125 A 
ENDROOT
BRANCH   2  16
ATOM     16  O2  non d   1      46.731  27.892  31.065  0.00  0.00    -0.272 OA
BRANCH  16  17
ATOM     17  C4  non d   1      47.297  27.168  32.075  0.00  0.00     0.298 C 
ATOM     18  O3  non d   1      47.829  27.606  33.087  0.00  0.00    -0.259 OA
BRANCH  17  19
ATOM     19  C5  non d   1      47.151  25.704  31.797  0.00  0.00     0.044 A 
ATOM     20  C6  non d   1      47.399  25.171  30.578  0.00  0.00     0.053 A 
ATOM     21  C7  non d   1      47.255  23.839  30.400  0.00  0.00     0.106 A 
ATOM     22  C8  non d   1      46.872  23.022  31.405  0.00  0.00     0.072 A 
ATOM     23  C9  non d   1      46.633  23.579  32.612  0.00  0.00     0.106 A 
ATOM     24  C10 non d   1      46.770  24.906  32.823  0.00  0.00     0.053 A 
BRANCH  21  25
ATOM     25  N2  non d   1      47.530  23.262  29.077  0.00  0.00    -0.116 N 
ATOM     26  O6  non d   1      48.686  23.343  28.642  0.00  0.00    -0.532 OA
ATOM     27  O7  non d   1      46.591  22.727  28.474  0.00  0.00    -0.532 OA
ENDBRANCH  21  25
BRANCH  23  28
ATOM     28  N1  non d   1      46.214  22.717  33.726  0.00  0.00    -0.116 N 
ATOM     29  O4  non d   1      46.584  23.027  34.866  0.00  0.00    -0.532 OA
ATOM     30  O5  non d   1      45.516  21.728  33.461  0.00  0.00    -0.532 OA
ENDBRANCH  23  28
ENDBRANCH  17  19
ENDBRANCH  16  17
ENDBRANCH   2  16
BRANCH   1  31
ATOM     31  O1  non d   1      44.507  28.969  32.271  0.00  0.00    -0.351 OA
ATOM     32  C1  non d   1      43.748  28.596  31.118  0.00  0.00     0.210 C 
ENDBRANCH   1  31
BRANCH  15  33
ATOM     33  O14 non d   1      44.408  31.630  32.912  0.00  0.00    -0.271 OA
BRANCH  33  34
ATOM     34  C22 non d   1      43.347  31.837  32.079  0.00  0.00     0.298 C 
ATOM     35  O15 non d   1      43.380  32.121  30.889  0.00  0.00    -0.259 OA
BRANCH  34  36
ATOM     36  C23 non d   1      42.071  31.693  32.848  0.00  0.00     0.044 A 
ATOM     37  C26 non d   1      41.090  32.599  32.621  0.00  0.00     0.053 A 
ATOM     38  C25 non d   1      39.924  32.490  33.293  0.00  0.00     0.106 A 
ATOM     39  C24 non d   1      39.702  31.495  34.179  0.00  0.00     0.072 A 
ATOM     40  C28 non d   1      40.693  30.602  34.378  0.00  0.00     0.106 A 
ATOM     41  C27 non d   1      41.877  30.686  33.734  0.00  0.00     0.053 A 
BRANCH  38  42
ATOM     42  N4  non d   1      38.863  33.477  33.049  0.00  0.00    -0.116 N 
ATOM     43  O18 non d   1      38.698  33.867  31.884  0.00  0.00    -0.532 OA
ATOM     44  O19 non d   1      38.196  33.862  34.018  0.00  0.00    -0.532 OA
ENDBRANCH  38  42
BRANCH  40  45
ATOM     45  N3  non d   1      40.470  29.492  35.307  0.00  0.00    -0.116 N 
ATOM     46  O16 non d   1      40.042  29.765  36.439  0.00  0.00    -0.532 OA
ATOM     47  O17 non d   1      40.736  28.350  34.911  0.00  0.00    -0.532 OA
ENDBRANCH  40  45
ENDBRANCH  34  36
ENDBRANCH  33  34
ENDBRANCH  15  33
BRANCH  11  48
ATOM     48  C18 non d   1      44.010  35.953  32.943  0.00  0.00     0.198 C 
BRANCH  48  49
ATOM     49  O12 non d   1      44.027  37.333  33.304  0.00  0.00    -0.398 OA
ATOM     50  H16 non d   1      44.925  37.532  33.638  0.00  0.00     0.209 HD
ENDBRANCH  48  49
ENDBRANCH  11  48
BRANCH   9  51
ATOM     51  O10 non d   1      47.936  36.206  29.959  0.00  0.00    -0.390 OA
ATOM     52  H10 non d   1      47.281  36.882  29.697  0.00  0.00     0.210 HD
ENDBRANCH   9  51
BRANCH  10  53
ATOM     53  O11 non d   1      46.236  37.572  31.775  0.00  0.00    -0.390 OA
ATOM     54  H12 non d   1      46.645  37.587  32.665  0.00  0.00     0.210 HD
ENDBRANCH  10  53
TORSDOF 15
ENDMDL
MODEL 7
REMARK VINA RESULT:    -9.223      2.080      3.383
REMARK INTER + INTRA:         -18.679
REMARK INTER:                 -17.181
REMARK INTRA:                  -1.498
REMARK UNBOUND:                -2.178
REMARK  15 active torsions:
REMARK  status: ('A' for Active; 'I' for Inactive)
REMARK    1  A    between atoms: O1_2  and  C2_3 
REMARK    2  A    between atoms: C3_4  and  O2_5 
REMARK    3  A    between atoms: O2_5  and  C4_6 
REMARK    4  A    between atoms: C4_6  and  C5_8 
REMARK    5  A    between atoms: C7_10  and  N2_17 
REMARK    6  A    between atoms: C9_12  and  N1_14 
REMARK    7  A    between atoms: C15_26  and  O10_27 
REMARK    8  A    between atoms: C16_28  and  O11_29 
REMARK    9  A    between atoms: C17_30  and  C18_31 
REMARK   10  A    between atoms: C18_31  and  O12_32 
REMARK   11  A    between atoms: C21_36  and  O14_37 
REMARK   12  A    between atoms: O14_37  and  C22_38 
REMARK   13  A    between atoms: C22_38  and  C23_39 
REMARK   14  A    between atoms: C25_42  and  N4_49 
REMARK   15  A    between atoms: N3_46  and  C28_45 
ROOT
ATOM      1  C2  non d   1      45.625  29.765  31.929  0.00  0.00     0.137 A 
ATOM      2  C3  non d   1      46.719  29.221  31.346  0.00  0.00     0.116 A 
ATOM      3  C11 non d   1      47.768  30.003  31.028  0.00  0.00     0.058 A 
ATOM      4  C12 non d   1      47.731  31.327  31.282  0.00  0.00     0.054 A 
ATOM      5  C13 non d   1      48.927  32.128  30.875  0.00  0.00     0.294 C 
ATOM      6  O8  non d   1      50.015  31.618  30.644  0.00  0.00    -0.259 OA
ATOM      7  O9  non d   1      48.746  33.472  30.771  0.00  0.00    -0.306 OA
ATOM      8  C14 non d   1      47.415  34.005  30.922  0.00  0.00     0.197 C 
ATOM      9  C15 non d   1      47.532  35.518  31.086  0.00  0.00     0.181 C 
ATOM     10  C16 non d   1      46.163  36.133  31.383  0.00  0.00     0.180 C 
ATOM     11  C17 non d   1      45.517  35.415  32.574  0.00  0.00     0.177 C 
ATOM     12  O13 non d   1      45.454  33.990  32.360  0.00  0.00    -0.368 OA
ATOM     13  C19 non d   1      46.732  33.395  32.148  0.00  0.00     0.191 C 
ATOM     14  C20 non d   1      46.660  31.893  31.898  0.00  0.00     0.026 A 
ATOM     15  C21 non d   1      45.609  31.091  32.229  0.00  0.00     0.125 A 
ENDROOT
BRANCH   2  16
ATOM     16  O2  non d   1      46.782  27.832  31.104  0.00  0.00    -0.272 OA
BRANCH  16  17
ATOM     17  C4  non d   1      47.399  27.127  32.098  0.00  0.00     0.298 C 
ATOM     18  O3  non d   1      48.018  27.583  33.050  0.00  0.00    -0.259 OA
BRANCH  17  19
ATOM     19  C5  non d   1      47.186  25.659  31.890  0.00  0.00     0.044 A 
ATOM     20  C6  non d   1      46.772  24.841  32.886  0.00  0.00     0.053 A 
ATOM     21  C7  non d   1      46.592  23.527  32.625  0.00  0.00     0.106 A 
ATOM     22  C8  non d   1      46.813  23.005  31.399  0.00  0.00     0.072 A 
ATOM     23  C9  non d   1      47.223  23.844  30.423  0.00  0.00     0.106 A 
ATOM     24  C10 non d   1      47.410  25.162  30.650  0.00  0.00     0.053 A 
BRANCH  21  25
ATOM     25  N2  non d   1      46.138  22.641  33.706  0.00  0.00    -0.116 N 
ATOM     26  O6  non d   1      45.532  21.609  33.389  0.00  0.00    -0.532 OA
ATOM     27  O7  non d   1      46.388  22.975  34.871  0.00  0.00    -0.532 OA
ENDBRANCH  21  25
BRANCH  23  28
ATOM     28  N1  non d   1      47.472  23.308  29.078  0.00  0.00    -0.116 N 
ATOM     29  O4  non d   1      46.572  22.644  28.546  0.00  0.00    -0.532 OA
ATOM     30  O5  non d   1      48.568  23.548  28.554  0.00  0.00    -0.532 OA
ENDBRANCH  23  28
ENDBRANCH  17  19
ENDBRANCH  16  17
ENDBRANCH   2  16
BRANCH   1  31
ATOM     31  O1  non d   1      44.553  28.940  32.269  0.00  0.00    -0.351 OA
ATOM     32  C1  non d   1      43.837  28.511  31.108  0.00  0.00     0.210 C 
ENDBRANCH   1  31
BRANCH  15  33
ATOM     33  O14 non d   1      44.465  31.611  32.871  0.00  0.00    -0.271 OA
BRANCH  33  34
ATOM     34  C22 non d   1      43.411  31.802  32.025  0.00  0.00     0.298 C 
ATOM     35  O15 non d   1      43.454  32.068  30.832  0.00  0.00    -0.259 OA
BRANCH  34  36
ATOM     36  C23 non d   1      42.129  31.667  32.786  0.00  0.00     0.044 A 
ATOM     37  C26 non d   1      41.150  32.570  32.539  0.00  0.00     0.053 A 
ATOM     38  C25 non d   1      39.977  32.469  33.202  0.00  0.00     0.106 A 
ATOM     39  C24 non d   1      39.748  31.486  34.099  0.00  0.00     0.072 A 
ATOM     40  C28 non d   1      40.738  30.596  34.318  0.00  0.00     0.106 A 
ATOM     41  C27 non d   1      41.928  30.673  33.683  0.00  0.00     0.053 A 
BRANCH  38  42
ATOM     42  N4  non d   1      38.919  33.452  32.936  0.00  0.00    -0.116 N 
ATOM     43  O18 non d   1      38.247  33.849  33.898  0.00  0.00    -0.532 OA
ATOM     44  O19 non d   1      38.758  33.827  31.767  0.00  0.00    -0.532 OA
ENDBRANCH  38  42
BRANCH  40  45
ATOM     45  N3  non d   1      40.508  29.498  35.260  0.00  0.00    -0.116 N 
ATOM     46  O16 non d   1      40.726  28.343  34.862  0.00  0.00    -0.532 OA
ATOM     47  O17 non d   1      40.095  29.788  36.389  0.00  0.00    -0.532 OA
ENDBRANCH  40  45
ENDBRANCH  34  36
ENDBRANCH  33  34
ENDBRANCH  15  33
BRANCH  11  48
ATOM     48  C18 non d   1      44.096  35.936  32.836  0.00  0.00     0.198 C 
BRANCH  48  49
ATOM     49  O12 non d   1      44.119  37.322  33.173  0.00  0.00    -0.398 OA
ATOM     50  H16 non d   1      43.335  37.734  32.754  0.00  0.00     0.209 HD
ENDBRANCH  48  49
ENDBRANCH  11  48
BRANCH   9  51
ATOM     51  O10 non d   1      48.057  36.120  29.892  0.00  0.00    -0.390 OA
ATOM     52  H10 non d   1      48.046  35.429  29.202  0.00  0.00     0.210 HD
ENDBRANCH   9  51
BRANCH  10  53
ATOM     53  O11 non d   1      46.346  37.523  31.670  0.00  0.00    -0.390 OA
ATOM     54  H12 non d   1      46.967  37.547  32.428  0.00  0.00     0.210 HD
ENDBRANCH  10  53
TORSDOF 15
ENDMDL
MODEL 8
REMARK VINA RESULT:    -9.212      2.262      7.739
REMARK INTER + INTRA:         -18.660
REMARK INTER:                 -16.687
REMARK INTRA:                  -1.974
REMARK UNBOUND:                -2.178
REMARK  15 active torsions:
REMARK  status: ('A' for Active; 'I' for Inactive)
REMARK    1  A    between atoms: O1_2  and  C2_3 
REMARK    2  A    between atoms: C3_4  and  O2_5 
REMARK    3  A    between atoms: O2_5  and  C4_6 
REMARK    4  A    between atoms: C4_6  and  C5_8 
REMARK    5  A    between atoms: C7_10  and  N2_17 
REMARK    6  A    between atoms: C9_12  and  N1_14 
REMARK    7  A    between atoms: C15_26  and  O10_27 
REMARK    8  A    between atoms: C16_28  and  O11_29 
REMARK    9  A    between atoms: C17_30  and  C18_31 
REMARK   10  A    between atoms: C18_31  and  O12_32 
REMARK   11  A    between atoms: C21_36  and  O14_37 
REMARK   12  A    between atoms: O14_37  and  C22_38 
REMARK   13  A    between atoms: C22_38  and  C23_39 
REMARK   14  A    between atoms: C25_42  and  N4_49 
REMARK   15  A    between atoms: N3_46  and  C28_45 
ROOT
ATOM      1  C2  non d   1      45.424  32.369  31.397  0.00  0.00     0.137 A 
ATOM      2  C3  non d   1      44.516  33.350  31.187  0.00  0.00     0.116 A 
ATOM      3  C11 non d   1      44.893  34.497  30.590  0.00  0.00     0.058 A 
ATOM      4  C12 non d   1      46.174  34.674  30.206  0.00  0.00     0.054 A 
ATOM      5  C13 non d   1      46.515  35.985  29.573  0.00  0.00     0.294 C 
ATOM      6  O8  non d   1      45.666  36.733  29.105  0.00  0.00    -0.259 OA
ATOM      7  O9  non d   1      47.834  36.315  29.541  0.00  0.00    -0.306 OA
ATOM      8  C14 non d   1      48.777  35.465  30.224  0.00  0.00     0.197 C 
ATOM      9  C15 non d   1      50.179  35.860  29.772  0.00  0.00     0.181 C 
ATOM     10  C16 non d   1      51.222  34.908  30.360  0.00  0.00     0.180 C 
ATOM     11  C17 non d   1      50.840  33.457  30.042  0.00  0.00     0.177 C 
ATOM     12  O13 non d   1      49.499  33.157  30.481  0.00  0.00    -0.368 OA
ATOM     13  C19 non d   1      48.511  33.996  29.888  0.00  0.00     0.191 C 
ATOM     14  C20 non d   1      47.098  33.692  30.371  0.00  0.00     0.026 A 
ATOM     15  C21 non d   1      46.703  32.529  30.964  0.00  0.00     0.125 A 
ENDROOT
BRANCH   2  16
ATOM     16  O2  non d   1      43.166  33.164  31.556  0.00  0.00    -0.272 OA
BRANCH  16  17
ATOM     17  C4  non d   1      42.842  33.723  32.760  0.00  0.00     0.298 C 
ATOM     18  O3  non d   1      43.430  34.631  33.333  0.00  0.00    -0.259 OA
BRANCH  17  19
ATOM     19  C5  non d   1      41.602  33.083  33.302  0.00  0.00     0.044 A 
ATOM     20  C6  non d   1      40.401  33.707  33.288  0.00  0.00     0.053 A 
ATOM     21  C7  non d   1      39.320  33.067  33.788  0.00  0.00     0.106 A 
ATOM     22  C8  non d   1      39.404  31.820  34.300  0.00  0.00     0.072 A 
ATOM     23  C9  non d   1      40.613  31.219  34.300  0.00  0.00     0.106 A 
ATOM     24  C10 non d   1      41.712  31.831  33.806  0.00  0.00     0.053 A 
BRANCH  21  25
ATOM     25  N2  non d   1      38.016  33.744  33.767  0.00  0.00    -0.116 N 
ATOM     26  O6  non d   1      37.466  33.900  32.669  0.00  0.00    -0.532 OA
ATOM     27  O7  non d   1      37.542  34.117  34.847  0.00  0.00    -0.532 OA
ENDBRANCH  21  25
BRANCH  23  28
ATOM     28  N1  non d   1      40.737  29.862  34.850  0.00  0.00    -0.116 N 
ATOM     29  O4  non d   1      41.208  28.983  34.117  0.00  0.00    -0.532 OA
ATOM     30  O5  non d   1      40.362  29.675  36.016  0.00  0.00    -0.532 OA
ENDBRANCH  23  28
ENDBRANCH  17  19
ENDBRANCH  16  17
ENDBRANCH   2  16
BRANCH   1  31
ATOM     31  O1  non d   1      45.015  31.180  31.999  0.00  0.00    -0.351 OA
ATOM     32  C1  non d   1      44.255  30.373  31.096  0.00  0.00     0.210 C 
ENDBRANCH   1  31
BRANCH  15  33
ATOM     33  O14 non d   1      47.609  31.467  31.168  0.00  0.00    -0.271 OA
BRANCH  33  34
ATOM     34  C22 non d   1      47.575  30.530  30.176  0.00  0.00     0.298 C 
ATOM     35  O15 non d   1      47.368  30.715  28.985  0.00  0.00    -0.259 OA
BRANCH  34  36
ATOM     36  C23 non d   1      47.808  29.173  30.763  0.00  0.00     0.044 A 
ATOM     37  C26 non d   1      47.813  29.060  32.112  0.00  0.00     0.053 A 
ATOM     38  C25 non d   1      48.011  27.847  32.672  0.00  0.00     0.106 A 
ATOM     39  C24 non d   1      48.193  26.738  31.923  0.00  0.00     0.072 A 
ATOM     40  C28 non d   1      48.174  26.878  30.581  0.00  0.00     0.106 A 
ATOM     41  C27 non d   1      47.992  28.077  29.987  0.00  0.00     0.053 A 
BRANCH  38  42
ATOM     42  N4  non d   1      48.020  27.728  34.136  0.00  0.00    -0.116 N 
ATOM     43  O18 non d   1      47.444  28.609  34.789  0.00  0.00    -0.532 OA
ATOM     44  O19 non d   1      48.603  26.755  34.634  0.00  0.00    -0.532 OA
ENDBRANCH  38  42
BRANCH  40  45
ATOM     45  N3  non d   1      48.335  25.689  29.742  0.00  0.00    -0.116 N 
ATOM     46  O16 non d   1      48.947  25.819  28.670  0.00  0.00    -0.532 OA
ATOM     47  O17 non d   1      47.838  24.630  30.146  0.00  0.00    -0.532 OA
ENDBRANCH  40  45
ENDBRANCH  34  36
ENDBRANCH  33  34
ENDBRANCH  15  33
BRANCH  11  48
ATOM     48  C18 non d   1      51.808  32.467  30.706  0.00  0.00     0.198 C 
BRANCH  48  49
ATOM     49  O12 non d   1      52.562  33.107  31.734  0.00  0.00    -0.398 OA
ATOM     50  H16 non d   1      53.490  33.152  31.427  0.00  0.00     0.209 HD
ENDBRANCH  48  49
ENDBRANCH  11  48
BRANCH   9  51
ATOM     51  O10 non d   1      50.491  37.198  30.191  0.00  0.00    -0.390 OA
ATOM     52  H10 non d   1      51.410  37.372  29.909  0.00  0.00     0.210 HD
ENDBRANCH   9  51
BRANCH  10  53
ATOM     53  O11 non d   1      52.497  35.230  29.794  0.00  0.00    -0.390 OA
ATOM     54  H12 non d   1      52.345  35.263  28.826  0.00  0.00     0.210 HD
ENDBRANCH  10  53
TORSDOF 15
ENDMDL
MODEL 9
REMARK VINA RESULT:    -9.208      2.118      2.824
REMARK INTER + INTRA:         -18.653
REMARK INTER:                 -17.133
REMARK INTRA:                  -1.520
REMARK UNBOUND:                -2.178
REMARK  15 active torsions:
REMARK  status: ('A' for Active; 'I' for Inactive)
REMARK    1  A    between atoms: O1_2  and  C2_3 
REMARK    2  A    between atoms: C3_4  and  O2_5 
REMARK    3  A    between atoms: O2_5  and  C4_6 
REMARK    4  A    between atoms: C4_6  and  C5_8 
REMARK    5  A    between atoms: C7_10  and  N2_17 
REMARK    6  A    between atoms: C9_12  and  N1_14 
REMARK    7  A    between atoms: C15_26  and  O10_27 
REMARK    8  A    between atoms: C16_28  and  O11_29 
REMARK    9  A    between atoms: C17_30  and  C18_31 
REMARK   10  A    between atoms: C18_31  and  O12_32 
REMARK   11  A    between atoms: C21_36  and  O14_37 
REMARK   12  A    between atoms: O14_37  and  C22_38 
REMARK   13  A    between atoms: C22_38  and  C23_39 
REMARK   14  A    between atoms: C25_42  and  N4_49 
REMARK   15  A    between atoms: N3_46  and  C28_45 
ROOT
ATOM      1  C2  non d   1      45.539  29.746  31.952  0.00  0.00     0.137 A 
ATOM      2  C3  non d   1      46.648  29.221  31.380  0.00  0.00     0.116 A 
ATOM      3  C11 non d   1      47.693  30.018  31.086  0.00  0.00     0.058 A 
ATOM      4  C12 non d   1      47.637  31.339  31.352  0.00  0.00     0.054 A 
ATOM      5  C13 non d   1      48.829  32.157  30.971  0.00  0.00     0.294 C 
ATOM      6  O8  non d   1      49.927  31.661  30.751  0.00  0.00    -0.259 OA
ATOM      7  O9  non d   1      48.635  33.500  30.878  0.00  0.00    -0.306 OA
ATOM      8  C14 non d   1      47.296  34.017  31.014  0.00  0.00     0.197 C 
ATOM      9  C15 non d   1      47.393  35.528  31.195  0.00  0.00     0.181 C 
ATOM     10  C16 non d   1      46.013  36.126  31.477  0.00  0.00     0.180 C 
ATOM     11  C17 non d   1      45.357  35.388  32.652  0.00  0.00     0.177 C 
ATOM     12  O13 non d   1      45.314  33.965  32.422  0.00  0.00    -0.368 OA
ATOM     13  C19 non d   1      46.602  33.386  32.223  0.00  0.00     0.191 C 
ATOM     14  C20 non d   1      46.551  31.886  31.958  0.00  0.00     0.026 A 
ATOM     15  C21 non d   1      45.504  31.069  32.265  0.00  0.00     0.125 A 
ENDROOT
BRANCH   2  16
ATOM     16  O2  non d   1      46.730  27.835  31.125  0.00  0.00    -0.272 OA
BRANCH  16  17
ATOM     17  C4  non d   1      47.266  27.116  32.156  0.00  0.00     0.298 C 
ATOM     18  O3  non d   1      47.801  27.559  33.163  0.00  0.00    -0.259 OA
BRANCH  17  19
ATOM     19  C5  non d   1      47.079  25.651  31.908  0.00  0.00     0.044 A 
ATOM     20  C6  non d   1      46.689  24.796  32.882  0.00  0.00     0.053 A 
ATOM     21  C7  non d   1      46.532  23.487  32.585  0.00  0.00     0.106 A 
ATOM     22  C8  non d   1      46.753  23.006  31.342  0.00  0.00     0.072 A 
ATOM     23  C9  non d   1      47.139  23.880  30.388  0.00  0.00     0.106 A 
ATOM     24  C10 non d   1      47.302  25.195  30.652  0.00  0.00     0.053 A 
BRANCH  21  25
ATOM     25  N2  non d   1      46.103  22.562  33.643  0.00  0.00    -0.116 N 
ATOM     26  O6  non d   1      46.322  22.888  34.817  0.00  0.00    -0.532 OA
ATOM     27  O7  non d   1      45.546  21.511  33.300  0.00  0.00    -0.532 OA
ENDBRANCH  21  25
BRANCH  23  28
ATOM     28  N1  non d   1      47.387  23.388  29.026  0.00  0.00    -0.116 N 
ATOM     29  O4  non d   1      48.458  23.696  28.487  0.00  0.00    -0.532 OA
ATOM     30  O5  non d   1      46.509  22.694  28.493  0.00  0.00    -0.532 OA
ENDBRANCH  23  28
ENDBRANCH  17  19
ENDBRANCH  16  17
ENDBRANCH   2  16
BRANCH   1  31
ATOM     31  O1  non d   1      44.472  28.906  32.268  0.00  0.00    -0.351 OA
ATOM     32  C1  non d   1      43.746  28.523  31.097  0.00  0.00     0.210 C 
ENDBRANCH   1  31
BRANCH  15  33
ATOM     33  O14 non d   1      44.344  31.570  32.895  0.00  0.00    -0.271 OA
BRANCH  33  34
ATOM     34  C22 non d   1      43.313  31.794  32.030  0.00  0.00     0.298 C 
ATOM     35  O15 non d   1      43.387  32.048  30.835  0.00  0.00    -0.259 OA
BRANCH  34  36
ATOM     36  C23 non d   1      42.014  31.713  32.769  0.00  0.00     0.044 A 
ATOM     37  C26 non d   1      41.850  30.699  33.650  0.00  0.00     0.053 A 
ATOM     38  C25 non d   1      40.692  30.604  34.340  0.00  0.00     0.106 A 
ATOM     39  C24 non d   1      39.695  31.501  34.183  0.00  0.00     0.072 A 
ATOM     40  C28 non d   1      39.889  32.506  33.304  0.00  0.00     0.106 A 
ATOM     41  C27 non d   1      41.028  32.625  32.588  0.00  0.00     0.053 A 
BRANCH  38  42
ATOM     42  N4  non d   1      40.516  29.500  35.292  0.00  0.00    -0.116 N 
ATOM     43  O18 non d   1      40.107  29.780  36.428  0.00  0.00    -0.532 OA
ATOM     44  O19 non d   1      40.785  28.355  34.907  0.00  0.00    -0.532 OA
ENDBRANCH  38  42
BRANCH  40  45
ATOM     45  N3  non d   1      38.839  33.513  33.136  0.00  0.00    -0.116 N 
ATOM     46  O16 non d   1      38.626  33.939  31.990  0.00  0.00    -0.532 OA
ATOM     47  O17 non d   1      38.238  33.889  34.150  0.00  0.00    -0.532 OA
ENDBRANCH  40  45
ENDBRANCH  34  36
ENDBRANCH  33  34
ENDBRANCH  15  33
BRANCH  11  48
ATOM     48  C18 non d   1      43.927  35.891  32.897  0.00  0.00     0.198 C 
BRANCH  48  49
ATOM     49  O12 non d   1      43.934  37.255  33.315  0.00  0.00    -0.398 OA
ATOM     50  H16 non d   1      43.073  37.641  33.055  0.00  0.00     0.209 HD
ENDBRANCH  48  49
ENDBRANCH  11  48
BRANCH   9  51
ATOM     51  O10 non d   1      47.928  36.149  30.015  0.00  0.00    -0.390 OA
ATOM     52  H10 non d   1      48.837  36.433  30.236  0.00  0.00     0.210 HD
ENDBRANCH   9  51
BRANCH  10  53
ATOM     53  O11 non d   1      46.176  37.515  31.781  0.00  0.00    -0.390 OA
ATOM     54  H12 non d   1      45.283  37.905  31.679  0.00  0.00     0.210 HD
ENDBRANCH  10  53
TORSDOF 15
ENDMDL
