@<TRIPOS>MOLECULE
docking1_4ntj_P2Y12_ACD5b_IV
 48 52 0 0 0
SMALL
GASTEIGER

@<TRIPOS>ATOM
      1  C2        17.0890   99.9950   51.0460 C.2     1  non1        0.2072
      2  C3        16.5100   99.5220   52.1760 C.2     1  non1        0.1857
      3  C4        15.9180  100.3750   53.0360 C.2     1  non1        0.0472
      4  C5        15.9430  101.7030   52.8010 C.2     1  non1        0.0802
      5  C6        15.2540  102.5780   53.8020 C.2     1  non1        0.3412
      6  O3        14.4660  102.1410   54.6300 O.2     1  non1       -0.2449
      7  O4        15.5290  103.9090   53.7350 O.3     1  non1       -0.4437
      8  C7        16.6360  104.3360   52.9250 C.3     1  non1        0.2293
      9  C8        16.5860  105.8580   52.8060 C.3     1  non1        0.1826
     10  C9        17.6830  106.3640   51.8640 C.3     1  non1        0.1704
     11  C10       17.6350  105.6010   50.5320 C.3     1  non1        0.1740
     12  O8        17.6730  104.1760   50.7560 O.3     1  non1       -0.3453
     13  C12       16.5620  103.7160   51.5310 C.3     1  non1        0.1831
     14  C13       16.5510  102.2050   51.6950 C.2     1  non1        0.0523
     15  C14       17.1230  101.3320   50.8160 C.2     1  non1        0.1840
     16  O2        16.5030   98.1380   52.4420 O.3     1  non1       -0.4178
     17  C21       17.3330   97.7940   53.4750 C.2     1  non1        0.3458
     18  O12       18.5540   97.8800   53.4960 O.2     1  non1       -0.2445
     19  C16       16.5230   97.3210   54.6430 C.2     1  non1        0.0777
     20  C15       15.8420   98.1750   55.4450 C.2     1  non1        0.0305
     21  C20       15.1260   97.6710   56.4730 C.2     1  non1        0.1431
     22  C19       15.0720   96.3460   56.7180 C.2     1  non1        0.0241
     23  C18       15.7490   95.5040   55.9100 C.2     1  non1        0.0019
     24  C17       16.4690   95.9890   54.8760 C.2     1  non1        0.0066
     25  N1        14.3830   98.5920   57.3430 N.pl3   1  non1        0.0577
     26  O10       14.1440   99.7300   56.9120 O.2     1  non1       -0.1261
     27  O11       14.0330   98.1840   58.4600 O.2     1  non1       -0.1261
     28  O1        17.7010   99.1220   50.1490 O.2     1  non1       -0.4654
     29  C1        19.0940   98.9810   50.4360 C.3     1  non1        0.2528
     30  O9        17.7950  101.7830   49.6550 O.3     1  non1       -0.4181
     31  C28       17.0150  101.8380   48.5350 C.2     1  non1        0.3458
     32  O15       15.8400  101.5000   48.4540 O.2     1  non1       -0.2445
     33  C23       17.7900  102.4140   47.3890 C.2     1  non1        0.0777
     34  C22       17.4780  101.9830   46.1420 C.2     1  non1        0.0305
     35  C27       18.1540  102.4870   45.0880 C.2     1  non1        0.1431
     36  C26       19.1300  103.4060   45.2460 C.2     1  non1        0.0241
     37  C25       19.4330  103.8280   46.4910 C.2     1  non1        0.0019
     38  C24       18.7690  103.3350   47.5570 C.2     1  non1        0.0066
     39  N2        17.8190  102.0280   43.7340 N.pl3   1  non1        0.0577
     40  O13       18.4330  102.5290   42.7820 O.2     1  non1       -0.1261
     41  O14       16.9370  101.1650   43.6170 O.2     1  non1       -0.1261
     42  C11       18.8300  105.9480   49.6360 C.3     1  non1        0.1692
     43  O7        18.5910  107.1700   48.9340 O.3     1  non1       -0.3794
     44  O5        16.7650  106.4730   54.0910 O.3     1  non1       -0.3785
     45  O6        17.4890  107.7640   51.6470 O.3     1  non1       -0.3794
     46 H          19.3550  107.3751   48.3726 H       1  non1        0.2105
     47 H          16.7303  107.4377   53.9954 H       1  non1        0.2106
     48 H          18.1781  108.0974   51.0513 H       1  non1        0.2105
@<TRIPOS>BOND
     1    40    39    2
     2    41    39    2
     3    39    35    1
     4    35    36    2
     5    35    34    1
     6    36    37    1
     7    34    33    2
     8    37    38    2
     9    33    38    1
    10    33    31    1
    11    32    31    2
    12    31    30    1
    13    43    42    1
    14    42    11    1
    15    30    15    1
    16    28    29    1
    17    28     1    1
    18    11    12    1
    19    11    10    1
    20    12    13    1
    21    15     1    2
    22    15    14    1
    23     1     2    1
    24    13    14    1
    25    13     8    1
    26    45    10    1
    27    14     4    2
    28    10     9    1
    29     2    16    1
    30     2     3    2
    31    16    17    1
    32     4     3    1
    33     4     5    1
    34     9     8    1
    35     9    44    1
    36     8     7    1
    37    17    18    2
    38    17    19    1
    39     7     5    1
    40     5     6    2
    41    19    24    2
    42    19    20    1
    43    24    23    1
    44    20    21    2
    45    23    22    2
    46    21    22    1
    47    21    25    1
    48    26    25    2
    49    25    27    2
    50    43    46    1
    51    44    47    1
    52    45    48    1
