@<TRIPOS>MOLECULE
docking1_4ntj_P2Y12_Zenarestat_meeko
 27 29 0 0 0
SMALL
GASTEIGER

@<TRIPOS>ATOM
      1  Cl        16.1490   97.2500   55.3730 Cl      1  UNL1       -0.0822
      2  O         18.1100  100.5720   48.9470 O.2     1  UNL1       -0.2462
      3  O         15.4890  102.9330   51.9750 O.2     1  UNL1       -0.2668
      4  N         16.8260  101.7840   50.4490 N.ar    1  UNL1       -0.2444
      5  N         17.5070   99.5480   50.9330 N.ar    1  UNL1       -0.2703
      6  C         16.8230   99.6050   52.1840 C.ar    1  UNL1        0.0698
      7  C         16.1340  100.7630   52.5500 C.ar    1  UNL1        0.0722
      8  C         17.5240  100.6290   50.0340 C.ar    1  UNL1        0.3345
      9  C         16.1130  101.9250   51.6490 C.ar    1  UNL1        0.2658
     10  C         16.8160   98.5210   53.0790 C.2     1  UNL1        0.0289
     11  C         15.4540  100.8390   53.7740 C.2     1  UNL1        0.0071
     12  C         16.1400   98.5950   54.2980 C.2     1  UNL1        0.0591
     13  C         15.4580   99.7540   54.6470 C.2     1  UNL1        0.0116
     14  C         16.8130  102.9420   49.5580 C.3     1  UNL1        0.1425
     15  C         18.1620  103.5960   49.4680 C.2     1  UNL1        0.0281
     16  Br        22.3540  105.6350   49.1980 Br      1  UNL1       -0.0489
     17  C         20.6570  104.8090   49.3080 C.2     1  UNL1        0.0368
     18  C         20.0710  104.2660   48.1640 C.2     1  UNL1        0.0361
     19  C         19.9910  104.7440   50.5310 C.2     1  UNL1        0.0066
     20  C         18.8190  103.6580   48.2450 C.2     1  UNL1        0.1384
     21  C         18.7390  104.1350   50.6120 C.2     1  UNL1        0.0003
     22  F         18.2630  103.1380   47.1420 F       1  UNL1       -0.2044
     23  C         18.2150   98.3200   50.5730 C.3     1  UNL1        0.2198
     24  C         19.6270   98.2830   51.0960 C.2     1  UNL1        0.3373
     25  O         20.4100   99.2180   50.9790 O.2     1  UNL1       -0.2481
     26  O         19.9510   97.1190   51.7040 O.3     1  UNL1       -0.4788
     27 H          19.3170   96.4321   51.7690 H       1  UNL1        0.2951
@<TRIPOS>BOND
     1    22    20    1
     2    18    20    1
     3    18    17    2
     4    20    15    2
     5     2     8    2
     6    16    17    1
     7    17    19    1
     8    15    14    1
     9    15    21    1
    10    14     4    1
    11     8     4   ar
    12     8     5   ar
    13     4     9   ar
    14    19    21    2
    15    23     5    1
    16    23    24    1
    17     5     6   ar
    18    25    24    2
    19    24    26    1
    20     9     3    2
    21     9     7   ar
    22     6     7   ar
    23     6    10    1
    24     7    11    1
    25    10    12    2
    26    11    13    2
    27    12    13    1
    28    12     1    1
    29    26    27    1
