@<TRIPOS>MOLECULE
docking1_4ntj_P2Y12_Tolrestat_meeko
 25 26 0 0 0
SMALL
GASTEIGER

@<TRIPOS>ATOM
      1  N         13.4140  103.4680   52.3600 N.am    1  UNL1       -0.2911
      2  C         13.1370  104.1990   51.1210 C.3     1  UNL1        0.1131
      3  C         14.7140  103.3080   52.9120 C.2     1  UNL1        0.0848
      4  S         15.5380  104.5160   53.7880 S.2     1  UNL1       -0.0347
      5  C         15.3710  102.0180   52.7300 C.2     1  UNL1        0.0200
      6  C         15.3980  101.0360   53.7340 C.2     1  UNL1        0.0019
      7  C         15.9840  101.7920   51.4980 C.2     1  UNL1        0.0018
      8  C         16.0540   99.8080   53.4850 C.2     1  UNL1        0.0069
      9  C         14.7850  101.2470   54.9810 C.2     1  UNL1        0.0032
     10  C         16.6310  100.5840   51.2520 C.2     1  UNL1        0.0001
     11  C         16.0800   98.8260   54.4880 C.2     1  UNL1        0.1053
     12  C         16.6660   99.5970   52.2380 C.2     1  UNL1        0.0001
     13  C         14.8200  100.2610   55.9670 C.2     1  UNL1        0.0368
     14  C         15.4660   99.0530   55.7210 C.2     1  UNL1        0.1426
     15  C         16.7640   97.5100   54.2720 C.3     1  UNL1        0.4214
     16  F         16.7740   97.1140   52.9690 F       1  UNL1       -0.1657
     17  F         18.0700   97.5110   54.6630 F       1  UNL1       -0.1657
     18  F         16.1690   96.4980   54.9650 F       1  UNL1       -0.1657
     19  O         15.4890   98.1040   56.7000 O.2     1  UNL1       -0.4715
     20  C         14.2320   97.7030   57.2420 C.3     1  UNL1        0.2525
     21  C         12.2180  102.9020   52.9910 C.3     1  UNL1        0.2021
     22  C         11.9130  103.5210   54.3300 C.2     1  UNL1        0.3343
     23  O         11.9100  104.7300   54.5240 O.2     1  UNL1       -0.2484
     24  O         11.6450  102.6150   55.2980 O.3     1  UNL1       -0.4790
     25 H          11.6597  101.6993   55.0997 H       1  UNL1        0.2951
@<TRIPOS>BOND
     1     2     1    1
     2    10     7    1
     3    10    12    2
     4     7     5    2
     5    12     8    1
     6     1     3    1
     7     1    21    1
     8     5     3    1
     9     5     6    1
    10     3     4    2
    11    16    15    1
    12    21    22    1
    13     8     6    2
    14     8    11    1
    15     6     9    1
    16    15    11    1
    17    15    17    1
    18    15    18    1
    19    22    23    2
    20    22    24    1
    21    11    14    2
    22     9    13    2
    23    14    13    1
    24    14    19    1
    25    19    20    1
    26    24    25    1
