MODEL 1
REMARK VINA RESULT:    -7.495      0.000      0.000
REMARK INTER + INTRA:         -10.765
REMARK INTER:                  -9.904
REMARK INTRA:                  -0.860
REMARK UNBOUND:                -0.860
REMARK  6 active torsions:
REMARK  status: ('A' for Active; 'I' for Inactive)
REMARK    1  A    between atoms: O_4  and  C_16 
REMARK    2  A    between atoms: N_6  and  C_9 
REMARK    3  A    between atoms: C_7  and  C_11 
REMARK    4  A    between atoms: C_9  and  C_16 
REMARK    5  A    between atoms: C_10  and  C_11 
REMARK    6  A    between atoms: C_13  and  C_14 
ROOT
ATOM      1  S   UNL d   1      16.835 102.300  51.088  0.00  0.00    -0.055 SA
ATOM      2  S   UNL d   1      15.734 100.696  53.382  0.00  0.00    -0.052 SA
ATOM      3  O   UNL d   1      18.435  99.342  49.286  0.00  0.00    -0.266 OA
ATOM      4  N   UNL d   1      17.186  99.750  51.234  0.00  0.00    -0.288 N 
ATOM      5  C   UNL d   1      17.723 101.550  49.827  0.00  0.00     0.076 A 
ATOM      6  C   UNL d   1      17.841 100.091  50.050  0.00  0.00     0.266 A 
ATOM      7  C   UNL d   1      16.582 100.781  51.945  0.00  0.00     0.149 A 
ENDROOT
BRANCH   5   8
ATOM      8  C   UNL d   1      18.252 102.176  48.774  0.00  0.00     0.031 C 
BRANCH   8   9
ATOM      9  C   UNL d   1      17.762 102.147  47.393  0.00  0.00    -0.060 C 
ATOM     10  C   UNL d   1      18.633 102.394  46.392  0.00  0.00     0.018 C 
ATOM     11  C   UNL d   1      16.304 101.827  47.177  0.00  0.00     0.048 C 
BRANCH  10  12
ATOM     12  C   UNL d   1      18.312 102.418  44.961  0.00  0.00    -0.036 A 
ATOM     13  C   UNL d   1      18.117 101.222  44.282  0.00  0.00     0.011 A 
ATOM     14  C   UNL d   1      17.813 101.245  42.921  0.00  0.00     0.001 A 
ATOM     15  C   UNL d   1      17.707 102.463  42.250  0.00  0.00     0.000 A 
ATOM     16  C   UNL d   1      17.904 103.659  42.941  0.00  0.00     0.001 A 
ATOM     17  C   UNL d   1      18.208 103.636  44.302  0.00  0.00     0.011 A 
ENDBRANCH  10  12
ENDBRANCH   8   9
ENDBRANCH   5   8
BRANCH   4  18
ATOM     18  C   UNL d   1      17.136  98.370  51.707  0.00  0.00     0.243 C 
BRANCH  18  19
ATOM     19  C   UNL d   1      18.385  97.957  52.445  0.00  0.00     0.158 C 
ATOM     20  O   UNL d   1      18.453  97.890  53.665  0.00  0.00    -0.649 OA
BRANCH  19  21
ATOM     21  O   UNL d   1      19.426  97.670  51.628  0.00  0.00    -0.775 OA
ATOM     22  H   UNL d   1      19.134  97.224  50.804  0.00  0.00     0.167 HD
ENDBRANCH  19  21
ENDBRANCH  18  19
ENDBRANCH   4  18
TORSDOF 6
ENDMDL
MODEL 2
REMARK VINA RESULT:    -7.348      6.637      7.979
REMARK INTER + INTRA:         -10.571
REMARK INTER:                  -9.616
REMARK INTRA:                  -0.955
REMARK UNBOUND:                -0.860
REMARK  6 active torsions:
REMARK  status: ('A' for Active; 'I' for Inactive)
REMARK    1  A    between atoms: O_4  and  C_16 
REMARK    2  A    between atoms: N_6  and  C_9 
REMARK    3  A    between atoms: C_7  and  C_11 
REMARK    4  A    between atoms: C_9  and  C_16 
REMARK    5  A    between atoms: C_10  and  C_11 
REMARK    6  A    between atoms: C_13  and  C_14 
ROOT
ATOM      1  S   UNL d   1      20.449 105.848  48.699  0.00  0.00    -0.055 SA
ATOM      2  S   UNL d   1      22.664 107.035  50.351  0.00  0.00    -0.052 SA
ATOM      3  O   UNL d   1      20.826 108.257  45.764  0.00  0.00    -0.266 OA
ATOM      4  N   UNL d   1      21.823 107.859  47.855  0.00  0.00    -0.288 N 
ATOM      5  C   UNL d   1      20.051 106.487  47.158  0.00  0.00     0.076 A 
ATOM      6  C   UNL d   1      20.922 107.634  46.813  0.00  0.00     0.266 A 
ATOM      7  C   UNL d   1      21.740 107.019  48.959  0.00  0.00     0.149 A 
ENDROOT
BRANCH   5   8
ATOM      8  C   UNL d   1      19.086 106.032  46.356  0.00  0.00     0.031 C 
BRANCH   8   9
ATOM      9  C   UNL d   1      19.148 104.859  45.481  0.00  0.00    -0.060 C 
ATOM     10  C   UNL d   1      18.006 104.413  44.914  0.00  0.00     0.018 C 
ATOM     11  C   UNL d   1      20.498 104.226  45.256  0.00  0.00     0.048 C 
BRANCH  10  12
ATOM     12  C   UNL d   1      17.884 103.252  44.027  0.00  0.00    -0.036 A 
ATOM     13  C   UNL d   1      17.734 101.985  44.574  0.00  0.00     0.011 A 
ATOM     14  C   UNL d   1      17.618 100.880  43.730  0.00  0.00     0.001 A 
ATOM     15  C   UNL d   1      17.654 101.052  42.347  0.00  0.00     0.000 A 
ATOM     16  C   UNL d   1      17.804 102.329  41.807  0.00  0.00     0.001 A 
ATOM     17  C   UNL d   1      17.920 103.434  42.650  0.00  0.00     0.011 A 
ENDBRANCH  10  12
ENDBRANCH   8   9
ENDBRANCH   5   8
BRANCH   4  18
ATOM     18  C   UNL d   1      22.811 108.932  47.789  0.00  0.00     0.243 C 
BRANCH  18  19
ATOM     19  C   UNL d   1      22.242 110.277  48.161  0.00  0.00     0.158 C 
ATOM     20  O   UNL d   1      22.168 110.680  49.316  0.00  0.00    -0.649 OA
BRANCH  19  21
ATOM     21  O   UNL d   1      21.818 110.999  47.097  0.00  0.00    -0.775 OA
ATOM     22  H   UNL d   1      21.806 111.961  47.286  0.00  0.00     0.167 HD
ENDBRANCH  19  21
ENDBRANCH  18  19
ENDBRANCH   4  18
TORSDOF 6
ENDMDL
MODEL 3
REMARK VINA RESULT:    -7.196      7.864      9.509
REMARK INTER + INTRA:         -10.370
REMARK INTER:                  -9.795
REMARK INTRA:                  -0.575
REMARK UNBOUND:                -0.860
REMARK  6 active torsions:
REMARK  status: ('A' for Active; 'I' for Inactive)
REMARK    1  A    between atoms: O_4  and  C_16 
REMARK    2  A    between atoms: N_6  and  C_9 
REMARK    3  A    between atoms: C_7  and  C_11 
REMARK    4  A    between atoms: C_9  and  C_16 
REMARK    5  A    between atoms: C_10  and  C_11 
REMARK    6  A    between atoms: C_13  and  C_14 
ROOT
ATOM      1  S   UNL d   1      11.620 103.197  50.285  0.00  0.00    -0.055 SA
ATOM      2  S   UNL d   1      14.378 103.191  51.484  0.00  0.00    -0.052 SA
ATOM      3  O   UNL d   1       9.817 104.257  53.477  0.00  0.00    -0.266 OA
ATOM      4  N   UNL d   1      12.011 103.813  52.758  0.00  0.00    -0.288 N 
ATOM      5  C   UNL d   1      10.245 103.610  51.224  0.00  0.00     0.076 A 
ATOM      6  C   UNL d   1      10.628 103.936  52.617  0.00  0.00     0.266 A 
ATOM      7  C   UNL d   1      12.731 103.427  51.634  0.00  0.00     0.149 A 
ENDROOT
BRANCH   5   8
ATOM      8  C   UNL d   1       8.986 103.638  50.783  0.00  0.00     0.031 C 
BRANCH   8   9
ATOM      9  C   UNL d   1       8.282 102.578  50.058  0.00  0.00    -0.060 C 
ATOM     10  C   UNL d   1       8.776 101.322  50.105  0.00  0.00     0.018 C 
ATOM     11  C   UNL d   1       7.030 102.959  49.308  0.00  0.00     0.048 C 
BRANCH  10  12
ATOM     12  C   UNL d   1       8.208 100.150  49.430  0.00  0.00    -0.036 A 
ATOM     13  C   UNL d   1       8.694  99.774  48.185  0.00  0.00     0.011 A 
ATOM     14  C   UNL d   1       8.153  98.659  47.544  0.00  0.00     0.001 A 
ATOM     15  C   UNL d   1       7.132  97.931  48.153  0.00  0.00     0.000 A 
ATOM     16  C   UNL d   1       6.651  98.316  49.404  0.00  0.00     0.001 A 
ATOM     17  C   UNL d   1       7.192  99.430  50.046  0.00  0.00     0.011 A 
ENDBRANCH  10  12
ENDBRANCH   8   9
ENDBRANCH   5   8
BRANCH   4  18
ATOM     18  C   UNL d   1      12.673 104.078  54.031  0.00  0.00     0.243 C 
BRANCH  18  19
ATOM     19  C   UNL d   1      12.690 102.878  54.945  0.00  0.00     0.158 C 
ATOM     20  O   UNL d   1      11.674 102.358  55.389  0.00  0.00    -0.649 OA
BRANCH  19  21
ATOM     21  O   UNL d   1      13.936 102.432  55.230  0.00  0.00    -0.775 OA
ATOM     22  H   UNL d   1      14.458 102.257  54.418  0.00  0.00     0.167 HD
ENDBRANCH  19  21
ENDBRANCH  18  19
ENDBRANCH   4  18
TORSDOF 6
ENDMDL
MODEL 4
REMARK VINA RESULT:    -7.079      6.447      7.576
REMARK INTER + INTRA:         -10.216
REMARK INTER:                  -9.334
REMARK INTRA:                  -0.881
REMARK UNBOUND:                -0.860
REMARK  6 active torsions:
REMARK  status: ('A' for Active; 'I' for Inactive)
REMARK    1  A    between atoms: O_4  and  C_16 
REMARK    2  A    between atoms: N_6  and  C_9 
REMARK    3  A    between atoms: C_7  and  C_11 
REMARK    4  A    between atoms: C_9  and  C_16 
REMARK    5  A    between atoms: C_10  and  C_11 
REMARK    6  A    between atoms: C_13  and  C_14 
ROOT
ATOM      1  S   UNL d   1      20.059 105.656  48.852  0.00  0.00    -0.055 SA
ATOM      2  S   UNL d   1      21.936 106.525  51.036  0.00  0.00    -0.052 SA
ATOM      3  O   UNL d   1      21.065 108.380  46.377  0.00  0.00    -0.266 OA
ATOM      4  N   UNL d   1      21.623 107.684  48.552  0.00  0.00    -0.288 N 
ATOM      5  C   UNL d   1      19.988 106.496  47.358  0.00  0.00     0.076 A 
ATOM      6  C   UNL d   1      20.939 107.631  47.336  0.00  0.00     0.266 A 
ATOM      7  C   UNL d   1      21.303 106.722  49.503  0.00  0.00     0.149 A 
ENDROOT
BRANCH   5   8
ATOM      8  C   UNL d   1      19.188 106.189  46.335  0.00  0.00     0.031 C 
BRANCH   8   9
ATOM      9  C   UNL d   1      19.224 104.970  45.522  0.00  0.00    -0.060 C 
ATOM     10  C   UNL d   1      18.082 104.547  44.939  0.00  0.00     0.018 C 
ATOM     11  C   UNL d   1      20.551 104.267  45.377  0.00  0.00     0.048 C 
BRANCH  10  12
ATOM     12  C   UNL d   1      17.936 103.347  44.108  0.00  0.00    -0.036 A 
ATOM     13  C   UNL d   1      17.962 103.465  42.725  0.00  0.00     0.011 A 
ATOM     14  C   UNL d   1      17.821 102.324  41.934  0.00  0.00     0.001 A 
ATOM     15  C   UNL d   1      17.656 101.076  42.534  0.00  0.00     0.000 A 
ATOM     16  C   UNL d   1      17.631 100.968  43.925  0.00  0.00     0.001 A 
ATOM     17  C   UNL d   1      17.772 102.108  44.715  0.00  0.00     0.011 A 
ENDBRANCH  10  12
ENDBRANCH   8   9
ENDBRANCH   5   8
BRANCH   4  18
ATOM     18  C   UNL d   1      22.630 108.707  48.814  0.00  0.00     0.243 C 
BRANCH  18  19
ATOM     19  C   UNL d   1      23.914 108.474  48.059  0.00  0.00     0.158 C 
ATOM     20  O   UNL d   1      24.783 107.697  48.434  0.00  0.00    -0.649 OA
BRANCH  19  21
ATOM     21  O   UNL d   1      24.016 109.208  46.925  0.00  0.00    -0.775 OA
ATOM     22  H   UNL d   1      24.502 108.730  46.221  0.00  0.00     0.167 HD
ENDBRANCH  19  21
ENDBRANCH  18  19
ENDBRANCH   4  18
TORSDOF 6
ENDMDL
MODEL 5
REMARK VINA RESULT:    -7.004      7.452      9.126
REMARK INTER + INTRA:         -10.117
REMARK INTER:                  -9.270
REMARK INTRA:                  -0.846
REMARK UNBOUND:                -0.860
REMARK  6 active torsions:
REMARK  status: ('A' for Active; 'I' for Inactive)
REMARK    1  A    between atoms: O_4  and  C_16 
REMARK    2  A    between atoms: N_6  and  C_9 
REMARK    3  A    between atoms: C_7  and  C_11 
REMARK    4  A    between atoms: C_9  and  C_16 
REMARK    5  A    between atoms: C_10  and  C_11 
REMARK    6  A    between atoms: C_13  and  C_14 
ROOT
ATOM      1  S   UNL d   1      10.178 104.861  50.950  0.00  0.00    -0.055 SA
ATOM      2  S   UNL d   1      11.001 106.340  53.436  0.00  0.00    -0.052 SA
ATOM      3  O   UNL d   1      13.377 102.803  50.650  0.00  0.00    -0.266 OA
ATOM      4  N   UNL d   1      12.459 104.434  52.073  0.00  0.00    -0.288 N 
ATOM      5  C   UNL d   1      11.212 103.702  50.224  0.00  0.00     0.076 A 
ATOM      6  C   UNL d   1      12.479 103.568  50.978  0.00  0.00     0.266 A 
ATOM      7  C   UNL d   1      11.323 105.217  52.241  0.00  0.00     0.149 A 
ENDROOT
BRANCH   5   8
ATOM      8  C   UNL d   1      10.936 103.000  49.123  0.00  0.00     0.031 C 
BRANCH   8   9
ATOM      9  C   UNL d   1       9.762 102.157  48.884  0.00  0.00    -0.060 C 
ATOM     10  C   UNL d   1       9.798 100.869  49.285  0.00  0.00     0.018 C 
ATOM     11  C   UNL d   1       8.571 102.794  48.212  0.00  0.00     0.048 C 
BRANCH  10  12
ATOM     12  C   UNL d   1       8.722  99.886  49.115  0.00  0.00    -0.036 A 
ATOM     13  C   UNL d   1       7.832  99.658  50.156  0.00  0.00     0.011 A 
ATOM     14  C   UNL d   1       6.810  98.722  49.995  0.00  0.00     0.001 A 
ATOM     15  C   UNL d   1       6.686  98.024  48.794  0.00  0.00     0.000 A 
ATOM     16  C   UNL d   1       7.585  98.261  47.754  0.00  0.00     0.001 A 
ATOM     17  C   UNL d   1       8.607  99.196  47.915  0.00  0.00     0.011 A 
ENDBRANCH  10  12
ENDBRANCH   8   9
ENDBRANCH   5   8
BRANCH   4  18
ATOM     18  C   UNL d   1      13.583 104.515  53.001  0.00  0.00     0.243 C 
BRANCH  18  19
ATOM     19  C   UNL d   1      13.464 103.549  54.152  0.00  0.00     0.158 C 
ATOM     20  O   UNL d   1      13.630 102.341  54.035  0.00  0.00    -0.649 OA
BRANCH  19  21
ATOM     21  O   UNL d   1      13.155 104.143  55.328  0.00  0.00    -0.775 OA
ATOM     22  H   UNL d   1      12.577 103.580  55.884  0.00  0.00     0.167 HD
ENDBRANCH  19  21
ENDBRANCH  18  19
ENDBRANCH   4  18
TORSDOF 6
ENDMDL
MODEL 6
REMARK VINA RESULT:    -6.980      5.986      6.884
REMARK INTER + INTRA:         -10.085
REMARK INTER:                  -9.124
REMARK INTRA:                  -0.961
REMARK UNBOUND:                -0.860
REMARK  6 active torsions:
REMARK  status: ('A' for Active; 'I' for Inactive)
REMARK    1  A    between atoms: O_4  and  C_16 
REMARK    2  A    between atoms: N_6  and  C_9 
REMARK    3  A    between atoms: C_7  and  C_11 
REMARK    4  A    between atoms: C_9  and  C_16 
REMARK    5  A    between atoms: C_10  and  C_11 
REMARK    6  A    between atoms: C_13  and  C_14 
ROOT
ATOM      1  S   UNL d   1      20.728 107.951  46.515  0.00  0.00    -0.055 SA
ATOM      2  S   UNL d   1      23.005 109.311  47.932  0.00  0.00    -0.052 SA
ATOM      3  O   UNL d   1      20.259 105.189  49.106  0.00  0.00    -0.266 OA
ATOM      4  N   UNL d   1      21.638 107.061  48.757  0.00  0.00    -0.288 N 
ATOM      5  C   UNL d   1      19.986 106.549  47.169  0.00  0.00     0.076 A 
ATOM      6  C   UNL d   1      20.615 106.161  48.453  0.00  0.00     0.266 A 
ATOM      7  C   UNL d   1      21.866 108.092  47.853  0.00  0.00     0.149 A 
ENDROOT
BRANCH   5   8
ATOM      8  C   UNL d   1      18.976 105.877  46.615  0.00  0.00     0.031 C 
BRANCH   8   9
ATOM      9  C   UNL d   1      19.071 104.774  45.656  0.00  0.00    -0.060 C 
ATOM     10  C   UNL d   1      17.940 104.323  45.072  0.00  0.00     0.018 C 
ATOM     11  C   UNL d   1      20.443 104.215  45.370  0.00  0.00     0.048 C 
BRANCH  10  12
ATOM     12  C   UNL d   1      17.852 103.225  44.104  0.00  0.00    -0.036 A 
ATOM     13  C   UNL d   1      17.735 101.918  44.559  0.00  0.00     0.011 A 
ATOM     14  C   UNL d   1      17.652 100.873  43.639  0.00  0.00     0.001 A 
ATOM     15  C   UNL d   1      17.686 101.144  42.271  0.00  0.00     0.000 A 
ATOM     16  C   UNL d   1      17.803 102.460  41.824  0.00  0.00     0.001 A 
ATOM     17  C   UNL d   1      17.886 103.505  42.744  0.00  0.00     0.011 A 
ENDBRANCH  10  12
ENDBRANCH   8   9
ENDBRANCH   5   8
BRANCH   4  18
ATOM     18  C   UNL d   1      22.435 106.925  49.972  0.00  0.00     0.243 C 
BRANCH  18  19
ATOM     19  C   UNL d   1      23.607 105.992  49.804  0.00  0.00     0.158 C 
ATOM     20  O   UNL d   1      24.733 106.373  49.513  0.00  0.00    -0.649 OA
BRANCH  19  21
ATOM     21  O   UNL d   1      23.295 104.690  50.005  0.00  0.00    -0.775 OA
ATOM     22  H   UNL d   1      23.979 104.088  49.644  0.00  0.00     0.167 HD
ENDBRANCH  19  21
ENDBRANCH  18  19
ENDBRANCH   4  18
TORSDOF 6
ENDMDL
MODEL 7
REMARK VINA RESULT:    -6.915      2.616      3.208
REMARK INTER + INTRA:          -9.998
REMARK INTER:                  -9.501
REMARK INTRA:                  -0.498
REMARK UNBOUND:                -0.860
REMARK  6 active torsions:
REMARK  status: ('A' for Active; 'I' for Inactive)
REMARK    1  A    between atoms: O_4  and  C_16 
REMARK    2  A    between atoms: N_6  and  C_9 
REMARK    3  A    between atoms: C_7  and  C_11 
REMARK    4  A    between atoms: C_9  and  C_16 
REMARK    5  A    between atoms: C_10  and  C_11 
REMARK    6  A    between atoms: C_13  and  C_14 
ROOT
ATOM      1  S   UNL d   1      18.302 101.161  49.661  0.00  0.00    -0.055 SA
ATOM      2  S   UNL d   1      16.917  99.356  51.628  0.00  0.00    -0.052 SA
ATOM      3  O   UNL d   1      16.257 104.274  50.491  0.00  0.00    -0.266 OA
ATOM      4  N   UNL d   1      16.399 102.028  51.169  0.00  0.00    -0.288 N 
ATOM      5  C   UNL d   1      17.852 102.809  49.499  0.00  0.00     0.076 A 
ATOM      6  C   UNL d   1      16.751 103.156  50.426  0.00  0.00     0.266 A 
ATOM      7  C   UNL d   1      17.103 100.856  50.916  0.00  0.00     0.149 A 
ENDROOT
BRANCH   5   8
ATOM      8  C   UNL d   1      18.404 103.683  48.656  0.00  0.00     0.031 C 
BRANCH   8   9
ATOM      9  C   UNL d   1      18.660 103.489  47.226  0.00  0.00    -0.060 C 
ATOM     10  C   UNL d   1      17.706 102.905  46.471  0.00  0.00     0.018 C 
ATOM     11  C   UNL d   1      19.982 103.971  46.683  0.00  0.00     0.048 C 
BRANCH  10  12
ATOM     12  C   UNL d   1      17.800 102.622  45.035  0.00  0.00    -0.036 A 
ATOM     13  C   UNL d   1      17.797 103.674  44.129  0.00  0.00     0.011 A 
ATOM     14  C   UNL d   1      17.885 103.406  42.762  0.00  0.00     0.001 A 
ATOM     15  C   UNL d   1      17.975 102.088  42.315  0.00  0.00     0.000 A 
ATOM     16  C   UNL d   1      17.978 101.038  43.234  0.00  0.00     0.001 A 
ATOM     17  C   UNL d   1      17.889 101.307  44.599  0.00  0.00     0.011 A 
ENDBRANCH  10  12
ENDBRANCH   8   9
ENDBRANCH   5   8
BRANCH   4  18
ATOM     18  C   UNL d   1      15.337 102.075  52.170  0.00  0.00     0.243 C 
BRANCH  18  19
ATOM     19  C   UNL d   1      15.862 102.194  53.578  0.00  0.00     0.158 C 
ATOM     20  O   UNL d   1      15.364 101.610  54.532  0.00  0.00    -0.649 OA
BRANCH  19  21
ATOM     21  O   UNL d   1      16.937 103.010  53.688  0.00  0.00    -0.775 OA
ATOM     22  H   UNL d   1      16.676 103.945  53.826  0.00  0.00     0.167 HD
ENDBRANCH  19  21
ENDBRANCH  18  19
ENDBRANCH   4  18
TORSDOF 6
ENDMDL
MODEL 8
REMARK VINA RESULT:    -6.894      5.445      6.047
REMARK INTER + INTRA:          -9.971
REMARK INTER:                  -9.040
REMARK INTRA:                  -0.931
REMARK UNBOUND:                -0.860
REMARK  6 active torsions:
REMARK  status: ('A' for Active; 'I' for Inactive)
REMARK    1  A    between atoms: O_4  and  C_16 
REMARK    2  A    between atoms: N_6  and  C_9 
REMARK    3  A    between atoms: C_7  and  C_11 
REMARK    4  A    between atoms: C_9  and  C_16 
REMARK    5  A    between atoms: C_10  and  C_11 
REMARK    6  A    between atoms: C_13  and  C_14 
ROOT
ATOM      1  S   UNL d   1      21.381 107.287  47.499  0.00  0.00    -0.055 SA
ATOM      2  S   UNL d   1      23.745 107.875  49.262  0.00  0.00    -0.052 SA
ATOM      3  O   UNL d   1      20.627 103.860  48.999  0.00  0.00    -0.266 OA
ATOM      4  N   UNL d   1      22.171 105.609  49.290  0.00  0.00    -0.288 N 
ATOM      5  C   UNL d   1      20.508 105.818  47.647  0.00  0.00     0.076 A 
ATOM      6  C   UNL d   1      21.079 104.961  48.711  0.00  0.00     0.266 A 
ATOM      7  C   UNL d   1      22.504 106.862  48.789  0.00  0.00     0.149 A 
ENDROOT
BRANCH   5   8
ATOM      8  C   UNL d   1      19.452 105.467  46.911  0.00  0.00     0.031 C 
BRANCH   8   9
ATOM      9  C   UNL d   1      19.429 104.516  45.797  0.00  0.00    -0.060 C 
ATOM     10  C   UNL d   1      18.238 104.048  45.368  0.00  0.00     0.018 C 
ATOM     11  C   UNL d   1      20.752 104.125  45.186  0.00  0.00     0.048 C 
BRANCH  10  12
ATOM     12  C   UNL d   1      18.033 103.086  44.280  0.00  0.00    -0.036 A 
ATOM     13  C   UNL d   1      17.889 101.737  44.576  0.00  0.00     0.011 A 
ATOM     14  C   UNL d   1      17.695 100.822  43.541  0.00  0.00     0.001 A 
ATOM     15  C   UNL d   1      17.648 101.264  42.220  0.00  0.00     0.000 A 
ATOM     16  C   UNL d   1      17.793 102.621  41.932  0.00  0.00     0.001 A 
ATOM     17  C   UNL d   1      17.986 103.536  42.967  0.00  0.00     0.011 A 
ENDBRANCH  10  12
ENDBRANCH   8   9
ENDBRANCH   5   8
BRANCH   4  18
ATOM     18  C   UNL d   1      22.933 104.997  50.374  0.00  0.00     0.243 C 
BRANCH  18  19
ATOM     19  C   UNL d   1      22.231 105.083  51.706  0.00  0.00     0.158 C 
ATOM     20  O   UNL d   1      22.367 106.023  52.478  0.00  0.00    -0.649 OA
BRANCH  19  21
ATOM     21  O   UNL d   1      21.436 104.018  51.968  0.00  0.00    -0.775 OA
ATOM     22  H   UNL d   1      20.565 104.289  52.326  0.00  0.00     0.167 HD
ENDBRANCH  19  21
ENDBRANCH  18  19
ENDBRANCH   4  18
TORSDOF 6
ENDMDL
MODEL 9
REMARK VINA RESULT:    -6.726      5.055      5.605
REMARK INTER + INTRA:          -9.749
REMARK INTER:                  -8.784
REMARK INTRA:                  -0.965
REMARK UNBOUND:                -0.860
REMARK  6 active torsions:
REMARK  status: ('A' for Active; 'I' for Inactive)
REMARK    1  A    between atoms: O_4  and  C_16 
REMARK    2  A    between atoms: N_6  and  C_9 
REMARK    3  A    between atoms: C_7  and  C_11 
REMARK    4  A    between atoms: C_9  and  C_16 
REMARK    5  A    between atoms: C_10  and  C_11 
REMARK    6  A    between atoms: C_13  and  C_14 
ROOT
ATOM      1  S   UNL d   1      18.155 106.085  48.672  0.00  0.00    -0.055 SA
ATOM      2  S   UNL d   1      18.651 106.225  51.635  0.00  0.00    -0.052 SA
ATOM      3  O   UNL d   1      21.830 106.257  47.660  0.00  0.00    -0.266 OA
ATOM      4  N   UNL d   1      20.544 106.253  49.627  0.00  0.00    -0.288 N 
ATOM      5  C   UNL d   1      19.454 106.117  47.553  0.00  0.00     0.076 A 
ATOM      6  C   UNL d   1      20.758 106.215  48.248  0.00  0.00     0.266 A 
ATOM      7  C   UNL d   1      19.227 106.197  50.067  0.00  0.00     0.149 A 
ENDROOT
BRANCH   5   8
ATOM      8  C   UNL d   1      19.334 106.063  46.225  0.00  0.00     0.031 C 
BRANCH   8   9
ATOM      9  C   UNL d   1      19.323 104.860  45.388  0.00  0.00    -0.060 C 
ATOM     10  C   UNL d   1      18.152 104.454  44.853  0.00  0.00     0.018 C 
ATOM     11  C   UNL d   1      20.637 104.154  45.165  0.00  0.00     0.048 C 
BRANCH  10  12
ATOM     12  C   UNL d   1      17.959 103.271  44.007  0.00  0.00    -0.036 A 
ATOM     13  C   UNL d   1      17.793 102.026  44.598  0.00  0.00     0.011 A 
ATOM     14  C   UNL d   1      17.610 100.901  43.793  0.00  0.00     0.001 A 
ATOM     15  C   UNL d   1      17.594 101.032  42.405  0.00  0.00     0.000 A 
ATOM     16  C   UNL d   1      17.762 102.288  41.821  0.00  0.00     0.001 A 
ATOM     17  C   UNL d   1      17.944 103.412  42.625  0.00  0.00     0.011 A 
ENDBRANCH  10  12
ENDBRANCH   8   9
ENDBRANCH   5   8
BRANCH   4  18
ATOM     18  C   UNL d   1      21.656 106.347  50.568  0.00  0.00     0.243 C 
BRANCH  18  19
ATOM     19  C   UNL d   1      22.285 105.011  50.870  0.00  0.00     0.158 C 
ATOM     20  O   UNL d   1      21.925 104.292  51.793  0.00  0.00    -0.649 OA
BRANCH  19  21
ATOM     21  O   UNL d   1      23.289 104.682  50.022  0.00  0.00    -0.775 OA
ATOM     22  H   UNL d   1      24.076 105.252  50.146  0.00  0.00     0.167 HD
ENDBRANCH  19  21
ENDBRANCH  18  19
ENDBRANCH   4  18
TORSDOF 6
ENDMDL
