MODEL 1
REMARK VINA RESULT:    -8.873      0.000      0.000
REMARK INTER + INTRA:         -16.362
REMARK INTER:                 -14.838
REMARK INTRA:                  -1.524
REMARK UNBOUND:                -1.524
REMARK  13 active torsions:
REMARK  status: ('A' for Active; 'I' for Inactive)
REMARK    1  A    between atoms: O1_2  and  C2_3 
REMARK    2  A    between atoms: C3_4  and  O2_5 
REMARK    3  A    between atoms: C21_33  and  O2_5 
REMARK    4  A    between atoms: C8_12  and  O5_13 
REMARK    5  A    between atoms: C9_14  and  O6_15 
REMARK    6  A    between atoms: C10_16  and  C11_17 
REMARK    7  A    between atoms: C11_17  and  O7_18 
REMARK    8  A    between atoms: C14_22  and  O9_23 
REMARK    9  A    between atoms: C28_44  and  O9_23 
REMARK   10  A    between atoms: C16_25  and  C21_33 
REMARK   11  A    between atoms: C20_29  and  N1_30 
REMARK   12  A    between atoms: C23_36  and  C28_44 
REMARK   13  A    between atoms: C27_40  and  N2_41 
ROOT
ATOM      1  C2  non d   1      17.089  99.995  51.046  0.00  0.00     0.137 A 
ATOM      2  C3  non d   1      16.510  99.522  52.176  0.00  0.00     0.116 A 
ATOM      3  C4  non d   1      15.918 100.375  53.036  0.00  0.00     0.058 A 
ATOM      4  C5  non d   1      15.943 101.703  52.801  0.00  0.00     0.054 A 
ATOM      5  C6  non d   1      15.254 102.578  53.802  0.00  0.00     0.294 C 
ATOM      6  O3  non d   1      14.466 102.141  54.630  0.00  0.00    -0.259 OA
ATOM      7  O4  non d   1      15.529 103.909  53.735  0.00  0.00    -0.306 OA
ATOM      8  C7  non d   1      16.636 104.336  52.925  0.00  0.00     0.197 C 
ATOM      9  C8  non d   1      16.586 105.858  52.806  0.00  0.00     0.181 C 
ATOM     10  C9  non d   1      17.683 106.364  51.864  0.00  0.00     0.180 C 
ATOM     11  C10 non d   1      17.635 105.601  50.532  0.00  0.00     0.177 C 
ATOM     12  O8  non d   1      17.673 104.176  50.756  0.00  0.00    -0.368 OA
ATOM     13  C12 non d   1      16.562 103.716  51.531  0.00  0.00     0.191 C 
ATOM     14  C13 non d   1      16.551 102.205  51.695  0.00  0.00     0.026 A 
ATOM     15  C14 non d   1      17.123 101.332  50.816  0.00  0.00     0.125 A 
ENDROOT
BRANCH   2  16
ATOM     16  O2  non d   1      16.503  98.138  52.442  0.00  0.00    -0.272 OA
BRANCH  16  17
ATOM     17  C21 non d   1      17.333  97.794  53.475  0.00  0.00     0.298 C 
ATOM     18  O12 non d   1      18.554  97.880  53.496  0.00  0.00    -0.259 OA
BRANCH  17  19
ATOM     19  C16 non d   1      16.523  97.321  54.643  0.00  0.00     0.042 A 
ATOM     20  C15 non d   1      15.842  98.175  55.445  0.00  0.00     0.053 A 
ATOM     21  C20 non d   1      15.126  97.671  56.473  0.00  0.00     0.103 A 
ATOM     22  C19 non d   1      15.072  96.346  56.718  0.00  0.00     0.036 A 
ATOM     23  C18 non d   1      15.749  95.504  55.910  0.00  0.00     0.003 A 
ATOM     24  C17 non d   1      16.469  95.989  54.876  0.00  0.00     0.018 A 
BRANCH  21  25
ATOM     25  N1  non d   1      14.383  98.592  57.343  0.00  0.00    -0.116 N 
ATOM     26  O10 non d   1      14.144  99.730  56.912  0.00  0.00    -0.532 OA
ATOM     27  O11 non d   1      14.033  98.184  58.460  0.00  0.00    -0.532 OA
ENDBRANCH  21  25
ENDBRANCH  17  19
ENDBRANCH  16  17
ENDBRANCH   2  16
BRANCH   1  28
ATOM     28  O1  non d   1      17.701  99.122  50.149  0.00  0.00    -0.351 OA
ATOM     29  C1  non d   1      19.094  98.981  50.436  0.00  0.00     0.210 C 
ENDBRANCH   1  28
BRANCH  15  30
ATOM     30  O9  non d   1      17.795 101.783  49.655  0.00  0.00    -0.271 OA
BRANCH  30  31
ATOM     31  C28 non d   1      17.015 101.838  48.535  0.00  0.00     0.298 C 
ATOM     32  O15 non d   1      15.840 101.500  48.454  0.00  0.00    -0.259 OA
BRANCH  31  33
ATOM     33  C23 non d   1      17.790 102.414  47.389  0.00  0.00     0.042 A 
ATOM     34  C22 non d   1      17.478 101.983  46.142  0.00  0.00     0.053 A 
ATOM     35  C27 non d   1      18.154 102.487  45.088  0.00  0.00     0.103 A 
ATOM     36  C26 non d   1      19.130 103.406  45.246  0.00  0.00     0.036 A 
ATOM     37  C25 non d   1      19.433 103.828  46.491  0.00  0.00     0.003 A 
ATOM     38  C24 non d   1      18.769 103.335  47.557  0.00  0.00     0.018 A 
BRANCH  35  39
ATOM     39  N2  non d   1      17.819 102.028  43.734  0.00  0.00    -0.116 N 
ATOM     40  O13 non d   1      18.433 102.529  42.782  0.00  0.00    -0.532 OA
ATOM     41  O14 non d   1      16.937 101.165  43.617  0.00  0.00    -0.532 OA
ENDBRANCH  35  39
ENDBRANCH  31  33
ENDBRANCH  30  31
ENDBRANCH  15  30
BRANCH  11  42
ATOM     42  C11 non d   1      18.830 105.948  49.636  0.00  0.00     0.198 C 
BRANCH  42  43
ATOM     43  O7  non d   1      18.591 107.170  48.934  0.00  0.00    -0.398 OA
ATOM     44  H13 non d   1      19.430 107.667  48.974  0.00  0.00     0.209 HD
ENDBRANCH  42  43
ENDBRANCH  11  42
BRANCH   9  45
ATOM     45  O5  non d   1      16.765 106.473  54.091  0.00  0.00    -0.390 OA
ATOM     46  H7  non d   1      17.425 105.934  54.569  0.00  0.00     0.210 HD
ENDBRANCH   9  45
BRANCH  10  47
ATOM     47  O6  non d   1      17.489 107.764  51.647  0.00  0.00    -0.390 OA
ATOM     48  H9  non d   1      16.522 107.905  51.713  0.00  0.00     0.210 HD
ENDBRANCH  10  47
TORSDOF 13
ENDMDL
MODEL 2
REMARK VINA RESULT:    -8.807      7.154     10.652
REMARK INTER + INTRA:         -16.252
REMARK INTER:                 -14.519
REMARK INTRA:                  -1.733
REMARK UNBOUND:                -1.524
REMARK  13 active torsions:
REMARK  status: ('A' for Active; 'I' for Inactive)
REMARK    1  A    between atoms: O1_2  and  C2_3 
REMARK    2  A    between atoms: C3_4  and  O2_5 
REMARK    3  A    between atoms: C21_33  and  O2_5 
REMARK    4  A    between atoms: C8_12  and  O5_13 
REMARK    5  A    between atoms: C9_14  and  O6_15 
REMARK    6  A    between atoms: C10_16  and  C11_17 
REMARK    7  A    between atoms: C11_17  and  O7_18 
REMARK    8  A    between atoms: C14_22  and  O9_23 
REMARK    9  A    between atoms: C28_44  and  O9_23 
REMARK   10  A    between atoms: C16_25  and  C21_33 
REMARK   11  A    between atoms: C20_29  and  N1_30 
REMARK   12  A    between atoms: C23_36  and  C28_44 
REMARK   13  A    between atoms: C27_40  and  N2_41 
ROOT
ATOM      1  C2  non d   1      20.428 106.640  46.750  0.00  0.00     0.137 A 
ATOM      2  C3  non d   1      21.233 107.533  47.374  0.00  0.00     0.116 A 
ATOM      3  C4  non d   1      20.727 108.700  47.819  0.00  0.00     0.058 A 
ATOM      4  C5  non d   1      19.431 109.005  47.602  0.00  0.00     0.054 A 
ATOM      5  C6  non d   1      18.948 110.317  48.137  0.00  0.00     0.294 C 
ATOM      6  O3  non d   1      19.574 110.963  48.967  0.00  0.00    -0.259 OA
ATOM      7  O4  non d   1      17.750 110.759  47.670  0.00  0.00    -0.306 OA
ATOM      8  C7  non d   1      17.181 110.103  46.525  0.00  0.00     0.197 C 
ATOM      9  C8  non d   1      15.746 110.596  46.351  0.00  0.00     0.181 C 
ATOM     10  C9  non d   1      15.052 109.850  45.207  0.00  0.00     0.180 C 
ATOM     11  C10 non d   1      15.205 108.333  45.389  0.00  0.00     0.177 C 
ATOM     12  O8  non d   1      16.593 107.976  45.559  0.00  0.00    -0.368 OA
ATOM     13  C12 non d   1      17.177 108.587  46.713  0.00  0.00     0.191 C 
ATOM     14  C13 non d   1      18.612 108.143  46.944  0.00  0.00     0.026 A 
ATOM     15  C14 non d   1      19.126 106.953  46.522  0.00  0.00     0.125 A 
ENDROOT
BRANCH   2  16
ATOM     16  O2  non d   1      22.595 107.233  47.582  0.00  0.00    -0.272 OA
BRANCH  16  17
ATOM     17  C21 non d   1      23.039 107.619  48.819  0.00  0.00     0.298 C 
ATOM     18  O12 non d   1      22.588 107.271  49.902  0.00  0.00    -0.259 OA
BRANCH  17  19
ATOM     19  C16 non d   1      24.225 108.523  48.674  0.00  0.00     0.042 A 
ATOM     20  C15 non d   1      25.166 108.334  47.719  0.00  0.00     0.053 A 
ATOM     21  C20 non d   1      26.202 109.197  47.647  0.00  0.00     0.103 A 
ATOM     22  C19 non d   1      26.319 110.238  48.497  0.00  0.00     0.036 A 
ATOM     23  C18 non d   1      25.372 110.419  49.441  0.00  0.00     0.003 A 
ATOM     24  C17 non d   1      24.329 109.567  49.528  0.00  0.00     0.018 A 
BRANCH  21  25
ATOM     25  N1  non d   1      27.223 109.000  46.610  0.00  0.00    -0.116 N 
ATOM     26  O10 non d   1      28.413 108.998  46.961  0.00  0.00    -0.532 OA
ATOM     27  O11 non d   1      26.843 108.845  45.440  0.00  0.00    -0.532 OA
ENDBRANCH  21  25
ENDBRANCH  17  19
ENDBRANCH  16  17
ENDBRANCH   2  16
BRANCH   1  28
ATOM     28  O1  non d   1      20.940 105.429  46.289  0.00  0.00    -0.351 OA
ATOM     29  C1  non d   1      21.187 104.528  47.371  0.00  0.00     0.210 C 
ENDBRANCH   1  28
BRANCH  15  30
ATOM     30  O9  non d   1      18.340 106.016  45.810  0.00  0.00    -0.271 OA
BRANCH  30  31
ATOM     31  C28 non d   1      17.846 104.996  46.573  0.00  0.00     0.298 C 
ATOM     32  O15 non d   1      17.407 105.091  47.713  0.00  0.00    -0.259 OA
BRANCH  31  33
ATOM     33  C23 non d   1      17.880 103.709  45.805  0.00  0.00     0.042 A 
ATOM     34  C22 non d   1      17.781 103.782  44.455  0.00  0.00     0.053 A 
ATOM     35  C27 non d   1      17.814 102.642  43.734  0.00  0.00     0.103 A 
ATOM     36  C26 non d   1      17.942 101.435  44.324  0.00  0.00     0.036 A 
ATOM     37  C25 non d   1      18.039 101.372  45.668  0.00  0.00     0.003 A 
ATOM     38  C24 non d   1      18.007 102.502  46.406  0.00  0.00     0.018 A 
BRANCH  35  39
ATOM     39  N2  non d   1      17.710 102.713  42.271  0.00  0.00    -0.116 N 
ATOM     40  O13 non d   1      17.388 103.797  41.764  0.00  0.00    -0.532 OA
ATOM     41  O14 non d   1      17.947 101.683  41.623  0.00  0.00    -0.532 OA
ENDBRANCH  35  39
ENDBRANCH  31  33
ENDBRANCH  30  31
ENDBRANCH  15  30
BRANCH  11  42
ATOM     42  C11 non d   1      14.687 107.559  44.170  0.00  0.00     0.198 C 
BRANCH  42  43
ATOM     43  O7  non d   1      13.259 107.487  44.196  0.00  0.00    -0.398 OA
ATOM     44  H13 non d   1      12.974 108.135  44.867  0.00  0.00     0.209 HD
ENDBRANCH  42  43
ENDBRANCH  11  42
BRANCH   9  45
ATOM     45  O5  non d   1      15.724 112.002  46.061  0.00  0.00    -0.390 OA
ATOM     46  H7  non d   1      16.398 112.416  46.635  0.00  0.00     0.210 HD
ENDBRANCH   9  45
BRANCH  10  47
ATOM     47  O6  non d   1      13.669 110.217  45.195  0.00  0.00    -0.390 OA
ATOM     48  H9  non d   1      13.177 109.370  45.207  0.00  0.00     0.210 HD
ENDBRANCH  10  47
TORSDOF 13
ENDMDL
MODEL 3
REMARK VINA RESULT:    -8.739      2.428      4.113
REMARK INTER + INTRA:         -16.137
REMARK INTER:                 -14.707
REMARK INTRA:                  -1.430
REMARK UNBOUND:                -1.524
REMARK  13 active torsions:
REMARK  status: ('A' for Active; 'I' for Inactive)
REMARK    1  A    between atoms: O1_2  and  C2_3 
REMARK    2  A    between atoms: C3_4  and  O2_5 
REMARK    3  A    between atoms: C21_33  and  O2_5 
REMARK    4  A    between atoms: C8_12  and  O5_13 
REMARK    5  A    between atoms: C9_14  and  O6_15 
REMARK    6  A    between atoms: C10_16  and  C11_17 
REMARK    7  A    between atoms: C11_17  and  O7_18 
REMARK    8  A    between atoms: C14_22  and  O9_23 
REMARK    9  A    between atoms: C28_44  and  O9_23 
REMARK   10  A    between atoms: C16_25  and  C21_33 
REMARK   11  A    between atoms: C20_29  and  N1_30 
REMARK   12  A    between atoms: C23_36  and  C28_44 
REMARK   13  A    between atoms: C27_40  and  N2_41 
ROOT
ATOM      1  C2  non d   1      16.812 103.118  50.403  0.00  0.00     0.137 A 
ATOM      2  C3  non d   1      16.288 103.057  51.650  0.00  0.00     0.116 A 
ATOM      3  C4  non d   1      16.783 103.844  52.627  0.00  0.00     0.058 A 
ATOM      4  C5  non d   1      17.831 104.657  52.379  0.00  0.00     0.054 A 
ATOM      5  C6  non d   1      18.313 105.503  53.516  0.00  0.00     0.294 C 
ATOM      6  O3  non d   1      17.650 105.689  54.528  0.00  0.00    -0.259 OA
ATOM      7  O4  non d   1      19.532 106.087  53.364  0.00  0.00    -0.306 OA
ATOM      8  C7  non d   1      20.370 105.641  52.286  0.00  0.00     0.197 C 
ATOM      9  C8  non d   1      21.552 106.603  52.167  0.00  0.00     0.181 C 
ATOM     10  C9  non d   1      22.427 106.240  50.963  0.00  0.00     0.180 C 
ATOM     11  C10 non d   1      21.564 106.104  49.700  0.00  0.00     0.177 C 
ATOM     12  O8  non d   1      20.472 105.187  49.922  0.00  0.00    -0.368 OA
ATOM     13  C12 non d   1      19.598 105.622  50.968  0.00  0.00     0.191 C 
ATOM     14  C13 non d   1      18.399 104.706  51.145  0.00  0.00     0.026 A 
ATOM     15  C14 non d   1      17.874 103.927  50.157  0.00  0.00     0.125 A 
ENDROOT
BRANCH   2  16
ATOM     16  O2  non d   1      15.210 102.192  51.925  0.00  0.00    -0.272 OA
BRANCH  16  17
ATOM     17  C21 non d   1      15.204 101.749  53.221  0.00  0.00     0.298 C 
ATOM     18  O12 non d   1      14.750 102.334  54.195  0.00  0.00    -0.259 OA
BRANCH  17  19
ATOM     19  C16 non d   1      15.807 100.380  53.293  0.00  0.00     0.042 A 
ATOM     20  C15 non d   1      16.516  99.846  52.270  0.00  0.00     0.053 A 
ATOM     21  C20 non d   1      17.037  98.609  52.414  0.00  0.00     0.103 A 
ATOM     22  C19 non d   1      16.871  97.897  53.547  0.00  0.00     0.036 A 
ATOM     23  C18 non d   1      16.168  98.440  54.563  0.00  0.00     0.003 A 
ATOM     24  C17 non d   1      15.640  99.677  54.437  0.00  0.00     0.018 A 
BRANCH  21  25
ATOM     25  N1  non d   1      17.810  98.028  51.309  0.00  0.00    -0.116 N 
ATOM     26  O10 non d   1      17.225  97.831  50.233  0.00  0.00    -0.532 OA
ATOM     27  O11 non d   1      19.005  97.766  51.509  0.00  0.00    -0.532 OA
ENDBRANCH  21  25
ENDBRANCH  17  19
ENDBRANCH  16  17
ENDBRANCH   2  16
BRANCH   1  28
ATOM     28  O1  non d   1      16.306 102.311  49.385  0.00  0.00    -0.351 OA
ATOM     29  C1  non d   1      17.128 101.159  49.183  0.00  0.00     0.210 C 
ENDBRANCH   1  28
BRANCH  15  30
ATOM     30  O9  non d   1      18.427 103.908  48.855  0.00  0.00    -0.271 OA
BRANCH  30  31
ATOM     31  C28 non d   1      17.825 104.759  47.972  0.00  0.00     0.298 C 
ATOM     32  O15 non d   1      17.124 105.723  48.258  0.00  0.00    -0.259 OA
BRANCH  31  33
ATOM     33  C23 non d   1      18.167 104.376  46.563  0.00  0.00     0.042 A 
ATOM     34  C22 non d   1      17.826 103.130  46.154  0.00  0.00     0.053 A 
ATOM     35  C27 non d   1      18.115 102.756  44.889  0.00  0.00     0.103 A 
ATOM     36  C26 non d   1      18.733 103.590  44.028  0.00  0.00     0.036 A 
ATOM     37  C25 non d   1      19.069 104.828  44.445  0.00  0.00     0.003 A 
ATOM     38  C24 non d   1      18.789 105.219  45.706  0.00  0.00     0.018 A 
BRANCH  35  39
ATOM     39  N2  non d   1      17.746 101.408  44.437  0.00  0.00    -0.116 N 
ATOM     40  O13 non d   1      16.929 101.309  43.510  0.00  0.00    -0.532 OA
ATOM     41  O14 non d   1      18.270 100.441  45.010  0.00  0.00    -0.532 OA
ENDBRANCH  35  39
ENDBRANCH  31  33
ENDBRANCH  30  31
ENDBRANCH  15  30
BRANCH  11  42
ATOM     42  C11 non d   1      22.374 105.559  48.515  0.00  0.00     0.198 C 
BRANCH  42  43
ATOM     43  O7  non d   1      22.970 106.633  47.784  0.00  0.00    -0.398 OA
ATOM     44  H13 non d   1      23.865 106.325  47.546  0.00  0.00     0.209 HD
ENDBRANCH  42  43
ENDBRANCH  11  42
BRANCH   9  45
ATOM     45  O5  non d   1      22.362 106.560  53.351  0.00  0.00    -0.390 OA
ATOM     46  H7  non d   1      22.781 105.677  53.371  0.00  0.00     0.210 HD
ENDBRANCH   9  45
BRANCH  10  47
ATOM     47  O6  non d   1      23.412 107.261  50.789  0.00  0.00    -0.390 OA
ATOM     48  H9  non d   1      24.169 106.820  50.351  0.00  0.00     0.210 HD
ENDBRANCH  10  47
TORSDOF 13
ENDMDL
MODEL 4
REMARK VINA RESULT:    -8.698      7.426     11.773
REMARK INTER + INTRA:         -16.070
REMARK INTER:                 -13.891
REMARK INTRA:                  -2.179
REMARK UNBOUND:                -1.524
REMARK  13 active torsions:
REMARK  status: ('A' for Active; 'I' for Inactive)
REMARK    1  A    between atoms: O1_2  and  C2_3 
REMARK    2  A    between atoms: C3_4  and  O2_5 
REMARK    3  A    between atoms: C21_33  and  O2_5 
REMARK    4  A    between atoms: C8_12  and  O5_13 
REMARK    5  A    between atoms: C9_14  and  O6_15 
REMARK    6  A    between atoms: C10_16  and  C11_17 
REMARK    7  A    between atoms: C11_17  and  O7_18 
REMARK    8  A    between atoms: C14_22  and  O9_23 
REMARK    9  A    between atoms: C28_44  and  O9_23 
REMARK   10  A    between atoms: C16_25  and  C21_33 
REMARK   11  A    between atoms: C20_29  and  N1_30 
REMARK   12  A    between atoms: C23_36  and  C28_44 
REMARK   13  A    between atoms: C27_40  and  N2_41 
ROOT
ATOM      1  C2  non d   1      17.460 108.878  46.903  0.00  0.00     0.137 A 
ATOM      2  C3  non d   1      17.131 107.633  46.482  0.00  0.00     0.116 A 
ATOM      3  C4  non d   1      16.101 107.462  45.631  0.00  0.00     0.058 A 
ATOM      4  C5  non d   1      15.364 108.520  45.233  0.00  0.00     0.054 A 
ATOM      5  C6  non d   1      14.243 108.242  44.280  0.00  0.00     0.294 C 
ATOM      6  O3  non d   1      14.152 107.193  43.656  0.00  0.00    -0.259 OA
ATOM      7  O4  non d   1      13.327 109.233  44.116  0.00  0.00    -0.306 OA
ATOM      8  C7  non d   1      13.335 110.329  45.045  0.00  0.00     0.197 C 
ATOM      9  C8  non d   1      12.405 111.418  44.513  0.00  0.00     0.181 C 
ATOM     10  C9  non d   1      12.455 112.659  45.410  0.00  0.00     0.180 C 
ATOM     11  C10 non d   1      13.910 113.095  45.636  0.00  0.00     0.177 C 
ATOM     12  O8  non d   1      14.704 111.992  46.124  0.00  0.00    -0.368 OA
ATOM     13  C12 non d   1      14.744 110.899  45.203  0.00  0.00     0.191 C 
ATOM     14  C13 non d   1      15.650 109.773  45.673  0.00  0.00     0.026 A 
ATOM     15  C14 non d   1      16.712 109.941  46.512  0.00  0.00     0.125 A 
ENDROOT
BRANCH   2  16
ATOM     16  O2  non d   1      17.880 106.519  46.913  0.00  0.00    -0.272 OA
BRANCH  16  17
ATOM     17  C21 non d   1      18.711 106.032  45.939  0.00  0.00     0.298 C 
ATOM     18  O12 non d   1      19.659 106.611  45.426  0.00  0.00    -0.259 OA
BRANCH  17  19
ATOM     19  C16 non d   1      18.325 104.625  45.598  0.00  0.00     0.042 A 
ATOM     20  C15 non d   1      18.316 104.165  44.324  0.00  0.00     0.053 A 
ATOM     21  C20 non d   1      17.965 102.881  44.098  0.00  0.00     0.103 A 
ATOM     22  C19 non d   1      17.629 102.049  45.105  0.00  0.00     0.036 A 
ATOM     23  C18 non d   1      17.648 102.516  46.371  0.00  0.00     0.003 A 
ATOM     24  C17 non d   1      17.997 103.797  46.617  0.00  0.00     0.018 A 
BRANCH  21  25
ATOM     25  N1  non d   1      17.957 102.377  42.719  0.00  0.00    -0.116 N 
ATOM     26  O10 non d   1      17.577 103.146  41.823  0.00  0.00    -0.532 OA
ATOM     27  O11 non d   1      18.332 101.212  42.522  0.00  0.00    -0.532 OA
ENDBRANCH  21  25
ENDBRANCH  17  19
ENDBRANCH  16  17
ENDBRANCH   2  16
BRANCH   1  28
ATOM     28  O1  non d   1      18.526 109.067  47.781  0.00  0.00    -0.351 OA
ATOM     29  C1  non d   1      18.105 108.925  49.140  0.00  0.00     0.210 C 
ENDBRANCH   1  28
BRANCH  15  30
ATOM     30  O9  non d   1      17.055 111.212  47.029  0.00  0.00    -0.271 OA
BRANCH  30  31
ATOM     31  C28 non d   1      18.021 111.869  46.321  0.00  0.00     0.298 C 
ATOM     32  O15 non d   1      18.915 111.351  45.662  0.00  0.00    -0.259 OA
BRANCH  31  33
ATOM     33  C23 non d   1      17.826 113.352  46.426  0.00  0.00     0.042 A 
ATOM     34  C22 non d   1      17.425 113.847  47.622  0.00  0.00     0.053 A 
ATOM     35  C27 non d   1      17.246 115.179  47.751  0.00  0.00     0.103 A 
ATOM     36  C26 non d   1      17.456 116.025  46.720  0.00  0.00     0.036 A 
ATOM     37  C25 non d   1      17.854 115.522  45.534  0.00  0.00     0.003 A 
ATOM     38  C24 non d   1      18.037 114.193  45.386  0.00  0.00     0.018 A 
BRANCH  35  39
ATOM     39  N2  non d   1      16.815 115.724  49.044  0.00  0.00    -0.116 N 
ATOM     40  O13 non d   1      15.671 116.192  49.125  0.00  0.00    -0.532 OA
ATOM     41  O14 non d   1      17.622 115.690  49.985  0.00  0.00    -0.532 OA
ENDBRANCH  35  39
ENDBRANCH  31  33
ENDBRANCH  30  31
ENDBRANCH  15  30
BRANCH  11  42
ATOM     42  C11 non d   1      14.011 114.217  46.677  0.00  0.00     0.198 C 
BRANCH  42  43
ATOM     43  O7  non d   1      13.942 115.495  46.041  0.00  0.00    -0.398 OA
ATOM     44  H13 non d   1      14.823 115.643  45.649  0.00  0.00     0.209 HD
ENDBRANCH  42  43
ENDBRANCH  11  42
BRANCH   9  45
ATOM     45  O5  non d   1      11.050 110.946  44.459  0.00  0.00    -0.390 OA
ATOM     46  H7  non d   1      10.719 110.942  45.378  0.00  0.00     0.210 HD
ENDBRANCH   9  45
BRANCH  10  47
ATOM     47  O6  non d   1      11.710 113.707  44.782  0.00  0.00    -0.390 OA
ATOM     48  H9  non d   1      10.784 113.389  44.761  0.00  0.00     0.210 HD
ENDBRANCH  10  47
TORSDOF 13
ENDMDL
MODEL 5
REMARK VINA RESULT:    -8.665      2.712      9.394
REMARK INTER + INTRA:         -16.014
REMARK INTER:                 -15.247
REMARK INTRA:                  -0.767
REMARK UNBOUND:                -1.524
REMARK  13 active torsions:
REMARK  status: ('A' for Active; 'I' for Inactive)
REMARK    1  A    between atoms: O1_2  and  C2_3 
REMARK    2  A    between atoms: C3_4  and  O2_5 
REMARK    3  A    between atoms: C21_33  and  O2_5 
REMARK    4  A    between atoms: C8_12  and  O5_13 
REMARK    5  A    between atoms: C9_14  and  O6_15 
REMARK    6  A    between atoms: C10_16  and  C11_17 
REMARK    7  A    between atoms: C11_17  and  O7_18 
REMARK    8  A    between atoms: C14_22  and  O9_23 
REMARK    9  A    between atoms: C28_44  and  O9_23 
REMARK   10  A    between atoms: C16_25  and  C21_33 
REMARK   11  A    between atoms: C20_29  and  N1_30 
REMARK   12  A    between atoms: C23_36  and  C28_44 
REMARK   13  A    between atoms: C27_40  and  N2_41 
ROOT
ATOM      1  C2  non d   1      16.917 102.652  50.034  0.00  0.00     0.137 A 
ATOM      2  C3  non d   1      17.806 101.935  49.307  0.00  0.00     0.116 A 
ATOM      3  C4  non d   1      18.025 100.638  49.600  0.00  0.00     0.058 A 
ATOM      4  C5  non d   1      17.399 100.063  50.647  0.00  0.00     0.054 A 
ATOM      5  C6  non d   1      17.692  98.617  50.898  0.00  0.00     0.294 C 
ATOM      6  O3  non d   1      18.228  97.897  50.065  0.00  0.00    -0.259 OA
ATOM      7  O4  non d   1      17.308  98.120  52.104  0.00  0.00    -0.306 OA
ATOM      8  C7  non d   1      16.919  99.048  53.130  0.00  0.00     0.197 C 
ATOM      9  C8  non d   1      16.297  98.259  54.281  0.00  0.00     0.181 C 
ATOM     10  C9  non d   1      15.766  99.206  55.362  0.00  0.00     0.180 C 
ATOM     11  C10 non d   1      14.857 100.273  54.734  0.00  0.00     0.177 C 
ATOM     12  O8  non d   1      15.532 100.947  53.651  0.00  0.00    -0.368 OA
ATOM     13  C12 non d   1      15.900 100.053  52.597  0.00  0.00     0.191 C 
ATOM     14  C13 non d   1      16.531 100.772  51.417  0.00  0.00     0.026 A 
ATOM     15  C14 non d   1      16.295 102.077  51.095  0.00  0.00     0.125 A 
ENDROOT
BRANCH   2  16
ATOM     16  O2  non d   1      18.485 102.535  48.227  0.00  0.00    -0.272 OA
BRANCH  16  17
ATOM     17  C21 non d   1      18.342 101.837  47.058  0.00  0.00     0.298 C 
ATOM     18  O12 non d   1      18.304 100.620  46.929  0.00  0.00    -0.259 OA
BRANCH  17  19
ATOM     19  C16 non d   1      18.185 102.789  45.912  0.00  0.00     0.042 A 
ATOM     20  C15 non d   1      18.043 102.366  44.633  0.00  0.00     0.053 A 
ATOM     21  C20 non d   1      17.897 103.285  43.655  0.00  0.00     0.103 A 
ATOM     22  C19 non d   1      17.888 104.608  43.921  0.00  0.00     0.036 A 
ATOM     23  C18 non d   1      18.025 105.018  45.199  0.00  0.00     0.003 A 
ATOM     24  C17 non d   1      18.170 104.113  46.190  0.00  0.00     0.018 A 
BRANCH  21  25
ATOM     25  N1  non d   1      17.738 102.831  42.268  0.00  0.00    -0.116 N 
ATOM     26  O10 non d   1      18.013 101.650  42.010  0.00  0.00    -0.532 OA
ATOM     27  O11 non d   1      17.337 103.652  41.429  0.00  0.00    -0.532 OA
ENDBRANCH  21  25
ENDBRANCH  17  19
ENDBRANCH  16  17
ENDBRANCH   2  16
BRANCH   1  28
ATOM     28  O1  non d   1      16.681 103.993  49.738  0.00  0.00    -0.351 OA
ATOM     29  C1  non d   1      17.626 104.841  50.396  0.00  0.00     0.210 C 
ENDBRANCH   1  28
BRANCH  15  30
ATOM     30  O9  non d   1      15.424 102.883  51.864  0.00  0.00    -0.271 OA
BRANCH  30  31
ATOM     31  C28 non d   1      14.183 103.056  51.319  0.00  0.00     0.298 C 
ATOM     32  O15 non d   1      13.838 102.734  50.188  0.00  0.00    -0.259 OA
BRANCH  31  33
ATOM     33  C23 non d   1      13.257 103.678  52.319  0.00  0.00     0.042 A 
ATOM     34  C22 non d   1      11.935 103.700  52.021  0.00  0.00     0.053 A 
ATOM     35  C27 non d   1      11.074 104.248  52.904  0.00  0.00     0.103 A 
ATOM     36  C26 non d   1      11.498 104.773  54.072  0.00  0.00     0.036 A 
ATOM     37  C25 non d   1      12.815 104.748  54.360  0.00  0.00     0.003 A 
ATOM     38  C24 non d   1      13.691 104.205  53.489  0.00  0.00     0.018 A 
BRANCH  35  39
ATOM     39  N2  non d   1       9.640 104.272  52.589  0.00  0.00    -0.116 N 
ATOM     40  O13 non d   1       8.855 104.623  53.481  0.00  0.00    -0.532 OA
ATOM     41  O14 non d   1       9.292 103.936  51.447  0.00  0.00    -0.532 OA
ENDBRANCH  35  39
ENDBRANCH  31  33
ENDBRANCH  30  31
ENDBRANCH  15  30
BRANCH  11  42
ATOM     42  C11 non d   1      14.456 101.348  55.753  0.00  0.00     0.198 C 
BRANCH  42  43
ATOM     43  O7  non d   1      14.385 100.788  57.066  0.00  0.00    -0.398 OA
ATOM     44  H13 non d   1      13.477 100.443  57.158  0.00  0.00     0.209 HD
ENDBRANCH  42  43
ENDBRANCH  11  42
BRANCH   9  45
ATOM     45  O5  non d   1      17.267  97.383  54.877  0.00  0.00    -0.390 OA
ATOM     46  H7  non d   1      18.061  97.924  55.056  0.00  0.00     0.210 HD
ENDBRANCH   9  45
BRANCH  10  47
ATOM     47  O6  non d   1      15.043  98.437  56.328  0.00  0.00    -0.390 OA
ATOM     48  H9  non d   1      15.387  97.524  56.242  0.00  0.00     0.210 HD
ENDBRANCH  10  47
TORSDOF 13
ENDMDL
MODEL 6
REMARK VINA RESULT:    -8.656      2.307      3.525
REMARK INTER + INTRA:         -15.999
REMARK INTER:                 -14.346
REMARK INTRA:                  -1.653
REMARK UNBOUND:                -1.524
REMARK  13 active torsions:
REMARK  status: ('A' for Active; 'I' for Inactive)
REMARK    1  A    between atoms: O1_2  and  C2_3 
REMARK    2  A    between atoms: C3_4  and  O2_5 
REMARK    3  A    between atoms: C21_33  and  O2_5 
REMARK    4  A    between atoms: C8_12  and  O5_13 
REMARK    5  A    between atoms: C9_14  and  O6_15 
REMARK    6  A    between atoms: C10_16  and  C11_17 
REMARK    7  A    between atoms: C11_17  and  O7_18 
REMARK    8  A    between atoms: C14_22  and  O9_23 
REMARK    9  A    between atoms: C28_44  and  O9_23 
REMARK   10  A    between atoms: C16_25  and  C21_33 
REMARK   11  A    between atoms: C20_29  and  N1_30 
REMARK   12  A    between atoms: C23_36  and  C28_44 
REMARK   13  A    between atoms: C27_40  and  N2_41 
ROOT
ATOM      1  C2  non d   1      17.090 102.866  50.401  0.00  0.00     0.137 A 
ATOM      2  C3  non d   1      16.599 102.776  51.659  0.00  0.00     0.116 A 
ATOM      3  C4  non d   1      17.032 103.624  52.613  0.00  0.00     0.058 A 
ATOM      4  C5  non d   1      17.989 104.532  52.332  0.00  0.00     0.054 A 
ATOM      5  C6  non d   1      18.406 105.441  53.446  0.00  0.00     0.294 C 
ATOM      6  O3  non d   1      17.746 105.578  54.468  0.00  0.00    -0.259 OA
ATOM      7  O4  non d   1      19.558 106.140  53.260  0.00  0.00    -0.306 OA
ATOM      8  C7  non d   1      20.416 105.761  52.172  0.00  0.00     0.197 C 
ATOM      9  C8  non d   1      21.493 106.832  52.014  0.00  0.00     0.181 C 
ATOM     10  C9  non d   1      22.378 106.536  50.798  0.00  0.00     0.180 C 
ATOM     11  C10 non d   1      21.509 106.294  49.555  0.00  0.00     0.177 C 
ATOM     12  O8  non d   1      20.517 105.278  49.814  0.00  0.00    -0.368 OA
ATOM     13  C12 non d   1      19.625 105.643  50.870  0.00  0.00     0.191 C 
ATOM     14  C13 non d   1      18.526 104.616  51.086  0.00  0.00     0.026 A 
ATOM     15  C14 non d   1      18.062 103.772  50.120  0.00  0.00     0.125 A 
ENDROOT
BRANCH   2  16
ATOM     16  O2  non d   1      15.617 101.812  51.969  0.00  0.00    -0.272 OA
BRANCH  16  17
ATOM     17  C21 non d   1      16.134 100.714  52.602  0.00  0.00     0.298 C 
ATOM     18  O12 non d   1      17.068 100.020  52.224  0.00  0.00    -0.259 OA
BRANCH  17  19
ATOM     19  C16 non d   1      15.413 100.486  53.895  0.00  0.00     0.042 A 
ATOM     20  C15 non d   1      15.571  99.354  54.622  0.00  0.00     0.053 A 
ATOM     21  C20 non d   1      14.892  99.225  55.783  0.00  0.00     0.103 A 
ATOM     22  C19 non d   1      14.068 100.193  56.234  0.00  0.00     0.036 A 
ATOM     23  C18 non d   1      13.923 101.319  55.504  0.00  0.00     0.003 A 
ATOM     24  C17 non d   1      14.594 101.466  54.342  0.00  0.00     0.018 A 
BRANCH  21  25
ATOM     25  N1  non d   1      15.063  98.002  56.576  0.00  0.00    -0.116 N 
ATOM     26  O10 non d   1      15.608  97.030  56.032  0.00  0.00    -0.532 OA
ATOM     27  O11 non d   1      14.655  98.006  57.747  0.00  0.00    -0.532 OA
ENDBRANCH  21  25
ENDBRANCH  17  19
ENDBRANCH  16  17
ENDBRANCH   2  16
BRANCH   1  28
ATOM     28  O1  non d   1      16.648 101.996  49.406  0.00  0.00    -0.351 OA
ATOM     29  C1  non d   1      17.590 100.943  49.185  0.00  0.00     0.210 C 
ENDBRANCH   1  28
BRANCH  15  30
ATOM     30  O9  non d   1      18.590 103.785  48.808  0.00  0.00    -0.271 OA
BRANCH  30  31
ATOM     31  C28 non d   1      17.924 104.602  47.938  0.00  0.00     0.298 C 
ATOM     32  O15 non d   1      17.184 105.532  48.240  0.00  0.00    -0.259 OA
BRANCH  31  33
ATOM     33  C23 non d   1      18.245 104.228  46.523  0.00  0.00     0.042 A 
ATOM     34  C22 non d   1      17.891 102.988  46.107  0.00  0.00     0.053 A 
ATOM     35  C27 non d   1      18.161 102.622  44.836  0.00  0.00     0.103 A 
ATOM     36  C26 non d   1      18.774 103.460  43.974  0.00  0.00     0.036 A 
ATOM     37  C25 non d   1      19.124 104.692  44.397  0.00  0.00     0.003 A 
ATOM     38  C24 non d   1      18.863 105.074  45.665  0.00  0.00     0.018 A 
BRANCH  35  39
ATOM     39  N2  non d   1      17.777 101.281  44.377  0.00  0.00    -0.116 N 
ATOM     40  O13 non d   1      16.920 101.195  43.486  0.00  0.00    -0.532 OA
ATOM     41  O14 non d   1      18.328 100.307  44.910  0.00  0.00    -0.532 OA
ENDBRANCH  35  39
ENDBRANCH  31  33
ENDBRANCH  30  31
ENDBRANCH  15  30
BRANCH  11  42
ATOM     42  C11 non d   1      22.346 105.812  48.363  0.00  0.00     0.198 C 
BRANCH  42  43
ATOM     43  O7  non d   1      22.888 106.927  47.651  0.00  0.00    -0.398 OA
ATOM     44  H13 non d   1      23.849 106.768  47.602  0.00  0.00     0.209 HD
ENDBRANCH  42  43
ENDBRANCH  11  42
BRANCH   9  45
ATOM     45  O5  non d   1      22.326 106.889  53.183  0.00  0.00    -0.390 OA
ATOM     46  H7  non d   1      22.152 107.751  53.608  0.00  0.00     0.210 HD
ENDBRANCH   9  45
BRANCH  10  47
ATOM     47  O6  non d   1      23.253 107.648  50.589  0.00  0.00    -0.390 OA
ATOM     48  H9  non d   1      24.098 107.257  50.284  0.00  0.00     0.210 HD
ENDBRANCH  10  47
TORSDOF 13
ENDMDL
MODEL 7
REMARK VINA RESULT:    -8.620      2.603      9.294
REMARK INTER + INTRA:         -15.939
REMARK INTER:                 -14.143
REMARK INTRA:                  -1.796
REMARK UNBOUND:                -1.524
REMARK  13 active torsions:
REMARK  status: ('A' for Active; 'I' for Inactive)
REMARK    1  A    between atoms: O1_2  and  C2_3 
REMARK    2  A    between atoms: C3_4  and  O2_5 
REMARK    3  A    between atoms: C21_33  and  O2_5 
REMARK    4  A    between atoms: C8_12  and  O5_13 
REMARK    5  A    between atoms: C9_14  and  O6_15 
REMARK    6  A    between atoms: C10_16  and  C11_17 
REMARK    7  A    between atoms: C11_17  and  O7_18 
REMARK    8  A    between atoms: C14_22  and  O9_23 
REMARK    9  A    between atoms: C28_44  and  O9_23 
REMARK   10  A    between atoms: C16_25  and  C21_33 
REMARK   11  A    between atoms: C20_29  and  N1_30 
REMARK   12  A    between atoms: C23_36  and  C28_44 
REMARK   13  A    between atoms: C27_40  and  N2_41 
ROOT
ATOM      1  C2  non d   1      17.416 102.780  50.086  0.00  0.00     0.137 A 
ATOM      2  C3  non d   1      18.337 102.084  49.377  0.00  0.00     0.116 A 
ATOM      3  C4  non d   1      18.496 100.764  49.595  0.00  0.00     0.058 A 
ATOM      4  C5  non d   1      17.776 100.141  50.551  0.00  0.00     0.054 A 
ATOM      5  C6  non d   1      18.008  98.672  50.721  0.00  0.00     0.294 C 
ATOM      6  O3  non d   1      18.585  97.993  49.881  0.00  0.00    -0.259 OA
ATOM      7  O4  non d   1      17.521  98.108  51.858  0.00  0.00    -0.306 OA
ATOM      8  C7  non d   1      17.082  98.977  52.915  0.00  0.00     0.197 C 
ATOM      9  C8  non d   1      16.352  98.134  53.959  0.00  0.00     0.181 C 
ATOM     10  C9  non d   1      15.767  99.024  55.061  0.00  0.00     0.180 C 
ATOM     11  C10 non d   1      14.939 100.160  54.444  0.00  0.00     0.177 C 
ATOM     12  O8  non d   1      15.713 100.883  53.463  0.00  0.00    -0.368 OA
ATOM     13  C12 non d   1      16.135 100.050  52.379  0.00  0.00     0.191 C 
ATOM     14  C13 non d   1      16.873 100.825  51.302  0.00  0.00     0.026 A 
ATOM     15  C14 non d   1      16.700 102.156  51.055  0.00  0.00     0.125 A 
ENDROOT
BRANCH   2  16
ATOM     16  O2  non d   1      19.113 102.733  48.395  0.00  0.00    -0.272 OA
BRANCH  16  17
ATOM     17  C21 non d   1      18.418 102.959  47.237  0.00  0.00     0.298 C 
ATOM     18  O12 non d   1      17.672 102.176  46.662  0.00  0.00    -0.259 OA
BRANCH  17  19
ATOM     19  C16 non d   1      18.658 104.360  46.764  0.00  0.00     0.042 A 
ATOM     20  C15 non d   1      17.679 105.295  46.742  0.00  0.00     0.053 A 
ATOM     21  C20 non d   1      17.976 106.540  46.311  0.00  0.00     0.103 A 
ATOM     22  C19 non d   1      19.219 106.872  45.907  0.00  0.00     0.036 A 
ATOM     23  C18 non d   1      20.188 105.934  45.938  0.00  0.00     0.003 A 
ATOM     24  C17 non d   1      19.910 104.685  46.367  0.00  0.00     0.018 A 
BRANCH  21  25
ATOM     25  N1  non d   1      16.918 107.558  46.290  0.00  0.00    -0.116 N 
ATOM     26  O10 non d   1      17.220 108.699  45.910  0.00  0.00    -0.532 OA
ATOM     27  O11 non d   1      15.780 107.223  46.651  0.00  0.00    -0.532 OA
ENDBRANCH  21  25
ENDBRANCH  17  19
ENDBRANCH  16  17
ENDBRANCH   2  16
BRANCH   1  28
ATOM     28  O1  non d   1      17.241 104.145  49.867  0.00  0.00    -0.351 OA
ATOM     29  C1  non d   1      18.079 104.917  50.730  0.00  0.00     0.210 C 
ENDBRANCH   1  28
BRANCH  15  30
ATOM     30  O9  non d   1      15.796 102.938  51.812  0.00  0.00    -0.271 OA
BRANCH  30  31
ATOM     31  C28 non d   1      14.542 103.029  51.278  0.00  0.00     0.298 C 
ATOM     32  O15 non d   1      14.212 102.702  50.144  0.00  0.00    -0.259 OA
BRANCH  31  33
ATOM     33  C23 non d   1      13.581 103.568  52.295  0.00  0.00     0.042 A 
ATOM     34  C22 non d   1      14.094 104.291  53.320  0.00  0.00     0.053 A 
ATOM     35  C27 non d   1      13.254 104.794  54.249  0.00  0.00     0.103 A 
ATOM     36  C26 non d   1      11.921 104.595  54.181  0.00  0.00     0.036 A 
ATOM     37  C25 non d   1      11.420 103.873  53.158  0.00  0.00     0.003 A 
ATOM     38  C24 non d   1      12.245 103.361  52.220  0.00  0.00     0.018 A 
BRANCH  35  39
ATOM     39  N2  non d   1      13.802 105.581  55.361  0.00  0.00    -0.116 N 
ATOM     40  O13 non d   1      14.937 106.060  55.230  0.00  0.00    -0.532 OA
ATOM     41  O14 non d   1      13.099 105.721  56.373  0.00  0.00    -0.532 OA
ENDBRANCH  35  39
ENDBRANCH  31  33
ENDBRANCH  30  31
ENDBRANCH  15  30
BRANCH  11  42
ATOM     42  C11 non d   1      14.493 101.177  55.503  0.00  0.00     0.198 C 
BRANCH  42  43
ATOM     43  O7  non d   1      14.932 100.770  56.801  0.00  0.00    -0.398 OA
ATOM     44  H13 non d   1      15.906 100.829  56.781  0.00  0.00     0.209 HD
ENDBRANCH  42  43
ENDBRANCH  11  42
BRANCH   9  45
ATOM     45  O5  non d   1      17.248  97.188  54.563  0.00  0.00    -0.390 OA
ATOM     46  H7  non d   1      17.001  96.308  54.217  0.00  0.00     0.210 HD
ENDBRANCH   9  45
BRANCH  10  47
ATOM     47  O6  non d   1      14.952  98.216  55.915  0.00  0.00    -0.390 OA
ATOM     48  H9  non d   1      14.862  98.728  56.746  0.00  0.00     0.210 HD
ENDBRANCH  10  47
TORSDOF 13
ENDMDL
MODEL 8
REMARK VINA RESULT:    -8.561      2.830      9.203
REMARK INTER + INTRA:         -15.841
REMARK INTER:                 -14.311
REMARK INTRA:                  -1.530
REMARK UNBOUND:                -1.524
REMARK  13 active torsions:
REMARK  status: ('A' for Active; 'I' for Inactive)
REMARK    1  A    between atoms: O1_2  and  C2_3 
REMARK    2  A    between atoms: C3_4  and  O2_5 
REMARK    3  A    between atoms: C21_33  and  O2_5 
REMARK    4  A    between atoms: C8_12  and  O5_13 
REMARK    5  A    between atoms: C9_14  and  O6_15 
REMARK    6  A    between atoms: C10_16  and  C11_17 
REMARK    7  A    between atoms: C11_17  and  O7_18 
REMARK    8  A    between atoms: C14_22  and  O9_23 
REMARK    9  A    between atoms: C28_44  and  O9_23 
REMARK   10  A    between atoms: C16_25  and  C21_33 
REMARK   11  A    between atoms: C20_29  and  N1_30 
REMARK   12  A    between atoms: C23_36  and  C28_44 
REMARK   13  A    between atoms: C27_40  and  N2_41 
ROOT
ATOM      1  C2  non d   1      17.386 102.691  50.106  0.00  0.00     0.137 A 
ATOM      2  C3  non d   1      18.255 101.973  49.356  0.00  0.00     0.116 A 
ATOM      3  C4  non d   1      18.393 100.649  49.568  0.00  0.00     0.058 A 
ATOM      4  C5  non d   1      17.706 100.044  50.559  0.00  0.00     0.054 A 
ATOM      5  C6  non d   1      17.912  98.571  50.721  0.00  0.00     0.294 C 
ATOM      6  O3  non d   1      18.431  97.877  49.856  0.00  0.00    -0.259 OA
ATOM      7  O4  non d   1      17.467  98.019  51.882  0.00  0.00    -0.306 OA
ATOM      8  C7  non d   1      17.100  98.900  52.957  0.00  0.00     0.197 C 
ATOM      9  C8  non d   1      16.403  98.076  54.038  0.00  0.00     0.181 C 
ATOM     10  C9  non d   1      15.893  98.980  55.165  0.00  0.00     0.180 C 
ATOM     11  C10 non d   1      15.063 100.135  54.586  0.00  0.00     0.177 C 
ATOM     12  O8  non d   1      15.805 100.838  53.567  0.00  0.00    -0.368 OA
ATOM     13  C12 non d   1      16.154  99.994  52.466  0.00  0.00     0.191 C 
ATOM     14  C13 non d   1      16.857 100.751  51.351  0.00  0.00     0.026 A 
ATOM     15  C14 non d   1      16.703 102.084  51.111  0.00  0.00     0.125 A 
ENDROOT
BRANCH   2  16
ATOM     16  O2  non d   1      18.996 102.602  48.335  0.00  0.00    -0.272 OA
BRANCH  16  17
ATOM     17  C21 non d   1      18.265 102.798  47.194  0.00  0.00     0.298 C 
ATOM     18  O12 non d   1      17.473 102.016  46.685  0.00  0.00    -0.259 OA
BRANCH  17  19
ATOM     19  C16 non d   1      18.532 104.167  46.648  0.00  0.00     0.042 A 
ATOM     20  C15 non d   1      17.636 105.177  46.755  0.00  0.00     0.053 A 
ATOM     21  C20 non d   1      17.953 106.387  46.246  0.00  0.00     0.103 A 
ATOM     22  C19 non d   1      19.136 106.612  45.638  0.00  0.00     0.036 A 
ATOM     23  C18 non d   1      20.024 105.601  45.542  0.00  0.00     0.003 A 
ATOM     24  C17 non d   1      19.725 104.385  46.046  0.00  0.00     0.018 A 
BRANCH  21  25
ATOM     25  N1  non d   1      16.986 107.486  46.363  0.00  0.00    -0.116 N 
ATOM     26  O10 non d   1      15.892 107.241  46.893  0.00  0.00    -0.532 OA
ATOM     27  O11 non d   1      17.315 108.599  45.929  0.00  0.00    -0.532 OA
ENDBRANCH  21  25
ENDBRANCH  17  19
ENDBRANCH  16  17
ENDBRANCH   2  16
BRANCH   1  28
ATOM     28  O1  non d   1      17.232 104.060  49.892  0.00  0.00    -0.351 OA
ATOM     29  C1  non d   1      18.199 104.808  50.633  0.00  0.00     0.210 C 
ENDBRANCH   1  28
BRANCH  15  30
ATOM     30  O9  non d   1      15.855 102.888  51.909  0.00  0.00    -0.271 OA
BRANCH  30  31
ATOM     31  C28 non d   1      14.601 103.068  51.399  0.00  0.00     0.298 C 
ATOM     32  O15 non d   1      14.231 102.779  50.267  0.00  0.00    -0.259 OA
BRANCH  31  33
ATOM     33  C23 non d   1      13.694 103.652  52.440  0.00  0.00     0.042 A 
ATOM     34  C22 non d   1      12.369 103.698  52.163  0.00  0.00     0.053 A 
ATOM     35  C27 non d   1      11.526 104.212  53.083  0.00  0.00     0.103 A 
ATOM     36  C26 non d   1      11.971 104.681  54.267  0.00  0.00     0.036 A 
ATOM     37  C25 non d   1      13.292 104.633  54.534  0.00  0.00     0.003 A 
ATOM     38  C24 non d   1      14.150 104.122  53.626  0.00  0.00     0.018 A 
BRANCH  35  39
ATOM     39  N2  non d   1      10.087 104.262  52.791  0.00  0.00    -0.116 N 
ATOM     40  O13 non d   1       9.326 104.660  53.684  0.00  0.00    -0.532 OA
ATOM     41  O14 non d   1       9.712 103.898  51.667  0.00  0.00    -0.532 OA
ENDBRANCH  35  39
ENDBRANCH  31  33
ENDBRANCH  30  31
ENDBRANCH  15  30
BRANCH  11  42
ATOM     42  C11 non d   1      14.693 101.163  55.662  0.00  0.00     0.198 C 
BRANCH  42  43
ATOM     43  O7  non d   1      14.291 100.503  56.865  0.00  0.00    -0.398 OA
ATOM     44  H13 non d   1      13.333 100.341  56.771  0.00  0.00     0.209 HD
ENDBRANCH  42  43
ENDBRANCH  11  42
BRANCH   9  45
ATOM     45  O5  non d   1      17.305  97.109  54.599  0.00  0.00    -0.390 OA
ATOM     46  H7  non d   1      17.964  97.610  55.118  0.00  0.00     0.210 HD
ENDBRANCH   9  45
BRANCH  10  47
ATOM     47  O6  non d   1      15.102  98.193  56.059  0.00  0.00    -0.390 OA
ATOM     48  H9  non d   1      15.398  97.269  55.922  0.00  0.00     0.210 HD
ENDBRANCH  10  47
TORSDOF 13
ENDMDL
MODEL 9
REMARK VINA RESULT:    -8.478      2.545      8.871
REMARK INTER + INTRA:         -15.702
REMARK INTER:                 -14.131
REMARK INTRA:                  -1.571
REMARK UNBOUND:                -1.524
REMARK  13 active torsions:
REMARK  status: ('A' for Active; 'I' for Inactive)
REMARK    1  A    between atoms: O1_2  and  C2_3 
REMARK    2  A    between atoms: C3_4  and  O2_5 
REMARK    3  A    between atoms: C21_33  and  O2_5 
REMARK    4  A    between atoms: C8_12  and  O5_13 
REMARK    5  A    between atoms: C9_14  and  O6_15 
REMARK    6  A    between atoms: C10_16  and  C11_17 
REMARK    7  A    between atoms: C11_17  and  O7_18 
REMARK    8  A    between atoms: C14_22  and  O9_23 
REMARK    9  A    between atoms: C28_44  and  O9_23 
REMARK   10  A    between atoms: C16_25  and  C21_33 
REMARK   11  A    between atoms: C20_29  and  N1_30 
REMARK   12  A    between atoms: C23_36  and  C28_44 
REMARK   13  A    between atoms: C27_40  and  N2_41 
ROOT
ATOM      1  C2  non d   1      16.566 103.129  50.502  0.00  0.00     0.137 A 
ATOM      2  C3  non d   1      17.129 103.417  49.304  0.00  0.00     0.116 A 
ATOM      3  C4  non d   1      18.043 104.403  49.209  0.00  0.00     0.058 A 
ATOM      4  C5  non d   1      18.365 105.138  50.294  0.00  0.00     0.054 A 
ATOM      5  C6  non d   1      19.395 106.207  50.104  0.00  0.00     0.294 C 
ATOM      6  O3  non d   1      20.128 106.251  49.124  0.00  0.00    -0.259 OA
ATOM      7  O4  non d   1      19.502 107.131  51.096  0.00  0.00    -0.306 OA
ATOM      8  C7  non d   1      18.465 107.186  52.089  0.00  0.00     0.197 C 
ATOM      9  C8  non d   1      18.927 108.107  53.217  0.00  0.00     0.181 C 
ATOM     10  C9  non d   1      17.906 108.121  54.358  0.00  0.00     0.180 C 
ATOM     11  C10 non d   1      17.564 106.686  54.785  0.00  0.00     0.177 C 
ATOM     12  O8  non d   1      17.154 105.898  53.648  0.00  0.00    -0.368 OA
ATOM     13  C12 non d   1      18.180 105.796  52.656  0.00  0.00     0.191 C 
ATOM     14  C13 non d   1      17.785 104.894  51.499  0.00  0.00     0.026 A 
ATOM     15  C14 non d   1      16.881 103.876  51.591  0.00  0.00     0.125 A 
ENDROOT
BRANCH   2  16
ATOM     16  O2  non d   1      16.779 102.671  48.160  0.00  0.00    -0.272 OA
BRANCH  16  17
ATOM     17  C21 non d   1      17.821 101.924  47.677  0.00  0.00     0.298 C 
ATOM     18  O12 non d   1      18.384 100.998  48.243  0.00  0.00    -0.259 OA
BRANCH  17  19
ATOM     19  C16 non d   1      18.168 102.373  46.290  0.00  0.00     0.042 A 
ATOM     20  C15 non d   1      17.655 101.779  45.187  0.00  0.00     0.053 A 
ATOM     21  C20 non d   1      18.009 102.246  43.971  0.00  0.00     0.103 A 
ATOM     22  C19 non d   1      18.856 103.287  43.830  0.00  0.00     0.036 A 
ATOM     23  C18 non d   1      19.357 103.875  44.936  0.00  0.00     0.003 A 
ATOM     24  C17 non d   1      19.013 103.422  46.160  0.00  0.00     0.018 A 
BRANCH  21  25
ATOM     25  N1  non d   1      17.452 101.608  42.772  0.00  0.00    -0.116 N 
ATOM     26  O10 non d   1      17.628 102.171  41.681  0.00  0.00    -0.532 OA
ATOM     27  O11 non d   1      16.837 100.541  42.913  0.00  0.00    -0.532 OA
ENDBRANCH  21  25
ENDBRANCH  17  19
ENDBRANCH  16  17
ENDBRANCH   2  16
BRANCH   1  28
ATOM     28  O1  non d   1      15.622 102.110  50.611  0.00  0.00    -0.351 OA
ATOM     29  C1  non d   1      16.230 100.887  51.032  0.00  0.00     0.210 C 
ENDBRANCH   1  28
BRANCH  15  30
ATOM     30  O9  non d   1      16.220 103.580  52.806  0.00  0.00    -0.271 OA
BRANCH  30  31
ATOM     31  C28 non d   1      14.894 103.907  52.823  0.00  0.00     0.298 C 
ATOM     32  O15 non d   1      14.369 104.832  52.215  0.00  0.00    -0.259 OA
BRANCH  31  33
ATOM     33  C23 non d   1      14.131 102.943  53.681  0.00  0.00     0.042 A 
ATOM     34  C22 non d   1      14.847 102.103  54.467  0.00  0.00     0.053 A 
ATOM     35  C27 non d   1      14.189 101.227  55.256  0.00  0.00     0.103 A 
ATOM     36  C26 non d   1      12.841 101.168  55.279  0.00  0.00     0.036 A 
ATOM     37  C25 non d   1      12.138 102.008  54.492  0.00  0.00     0.003 A 
ATOM     38  C24 non d   1      12.778 102.890  53.696  0.00  0.00     0.018 A 
BRANCH  35  39
ATOM     39  N2  non d   1      14.957 100.315  56.113  0.00  0.00    -0.116 N 
ATOM     40  O13 non d   1      16.193 100.401  56.092  0.00  0.00    -0.532 OA
ATOM     41  O14 non d   1      14.327  99.506  56.810  0.00  0.00    -0.532 OA
ENDBRANCH  35  39
ENDBRANCH  31  33
ENDBRANCH  30  31
ENDBRANCH  15  30
BRANCH  11  42
ATOM     42  C11 non d   1      16.410 106.653  55.794  0.00  0.00     0.198 C 
BRANCH  42  43
ATOM     43  O7  non d   1      16.818 107.227  57.038  0.00  0.00    -0.398 OA
ATOM     44  H13 non d   1      17.462 107.924  56.809  0.00  0.00     0.209 HD
ENDBRANCH  42  43
ENDBRANCH  11  42
BRANCH   9  45
ATOM     45  O5  non d   1      19.096 109.450  52.737  0.00  0.00    -0.390 OA
ATOM     46  H7  non d   1      19.587 109.386  51.894  0.00  0.00     0.210 HD
ENDBRANCH   9  45
BRANCH  10  47
ATOM     47  O6  non d   1      18.457 108.853  55.456  0.00  0.00    -0.390 OA
ATOM     48  H9  non d   1      17.699 109.046  56.046  0.00  0.00     0.210 HD
ENDBRANCH  10  47
TORSDOF 13
ENDMDL
