@<TRIPOS>MOLECULE
docking1_4ntj_P2Y12_ACD5b_II
 54 58 0 0 0
SMALL
GASTEIGER

@<TRIPOS>ATOM
      1  C2        17.2500  100.4370   50.5700 C.2     1  non1        0.2072
      2  C3        16.6620  100.0070   51.7110 C.2     1  non1        0.1857
      3  C11       16.1400  100.8990   52.5740 C.2     1  non1        0.0472
      4  C12       16.2050  102.2200   52.3100 C.2     1  non1        0.0802
      5  C13       15.6230  103.1440   53.3310 C.2     1  non1        0.3412
      6  O8        14.8330  102.7680   54.1880 O.2     1  non1       -0.2449
      7  O9        16.0180  104.4430   53.2640 O.3     1  non1       -0.4437
      8  C14       17.0500  104.8060   52.3240 C.3     1  non1        0.2293
      9  C15       17.0740  106.3280   52.2180 C.3     1  non1        0.1826
     10  C16       18.0600  106.7750   51.1370 C.3     1  non1        0.1704
     11  C17       17.7500  106.0530   49.8190 C.3     1  non1        0.1740
     12  O13       17.7250  104.6220   49.9950 O.3     1  non1       -0.3453
     13  C19       16.7630  104.1880   50.9540 C.3     1  non1        0.1831
     14  C20       16.7560  102.6770   51.1550 C.2     1  non1        0.0523
     15  C21       17.2700  101.7660   50.2810 C.2     1  non1        0.1840
     16  O2        16.5610   98.6260   51.9840 O.3     1  non1       -0.4178
     17  C4        17.2900   98.2230   53.0660 C.2     1  non1        0.3459
     18  O3        18.4910   97.9860   53.0990 O.2     1  non1       -0.2445
     19  C5        16.4080   98.1360   54.2730 C.2     1  non1        0.0793
     20  C6        15.6080   99.1570   54.6590 C.2     1  non1        0.0306
     21  C7        14.8300   99.0060   55.7540 C.2     1  non1        0.1447
     22  C8        14.8260   97.8640   56.4750 C.2     1  non1        0.0481
     23  C9        15.6310   96.8590   56.0670 C.2     1  non1        0.1447
     24  C10       16.4190   96.9770   54.9760 C.2     1  non1        0.0306
     25  N2        13.9590  100.1140   56.1690 N.pl3   1  non1        0.0577
     26  O6        12.9480  100.3380   55.4900 O.2     1  non1       -0.1261
     27  O7        14.2840  100.7600   57.1750 O.2     1  non1       -0.1261
     28  N1        15.6500   95.6040   56.8290 N.pl3   1  non1        0.0577
     29  O4        15.8320   95.6740   58.0520 O.2     1  non1       -0.1261
     30  O5        15.4850   94.5460   56.2060 O.2     1  non1       -0.1261
     31  O1        17.7710   99.5020   49.6770 O.2     1  non1       -0.4654
     32  C1        19.1100   99.1400   50.0240 C.3     1  non1        0.2528
     33  O14       17.8580  102.1700   49.0630 O.3     1  non1       -0.4181
     34  C22       17.0230  102.0410   47.9910 C.2     1  non1        0.3459
     35  O15       15.8820  101.6000   47.9870 O.2     1  non1       -0.2445
     36  C23       17.7240  102.5040   46.7530 C.2     1  non1        0.0793
     37  C26       18.7290  103.4010   46.8930 C.2     1  non1        0.0306
     38  C25       19.3870  103.8320   45.7960 C.2     1  non1        0.1447
     39  C24       19.0800  103.3840   44.5590 C.2     1  non1        0.0481
     40  C28       18.0800  102.4840   44.4500 C.2     1  non1        0.1447
     41  C27       17.3920  102.0410   45.5240 C.2     1  non1        0.0306
     42  N4        20.4740  104.8090   45.9500 N.pl3   1  non1        0.0577
     43  O18       21.5670  104.3930   46.3600 O.2     1  non1       -0.1261
     44  O19       20.2350  105.9900   45.6640 O.2     1  non1       -0.1261
     45  N3        17.7460  101.9540   43.1260 N.pl3   1  non1        0.0577
     46  O16       18.0360  102.6470   42.1380 O.2     1  non1       -0.1261
     47  O17       17.1820  100.8540   43.0740 O.2     1  non1       -0.1261
     48  C18       18.7830  106.3990   48.7370 C.3     1  non1        0.1692
     49  O12       20.0420  106.7260   49.3240 O.3     1  non1       -0.3794
     50  O10       17.4650  106.9190   53.4680 O.3     1  non1       -0.3785
     51  O11       17.9410  108.1920   50.9760 O.3     1  non1       -0.3794
     52 H          20.6788  106.9409   48.6246 H       1  non1        0.2105
     53 H          17.4741  107.8850   53.3801 H       1  non1        0.2106
     54 H          18.5604  108.4929   50.2929 H       1  non1        0.2105
@<TRIPOS>BOND
     1    46    45    2
     2    47    45    2
     3    45    40    1
     4    40    39    2
     5    40    41    1
     6    39    38    1
     7    41    36    2
     8    44    42    2
     9    38    42    1
    10    38    37    2
    11    42    43    2
    12    36    37    1
    13    36    34    1
    14    35    34    2
    15    34    33    1
    16    48    49    1
    17    48    11    1
    18    33    15    1
    19    31    32    1
    20    31     1    1
    21    11    12    1
    22    11    10    1
    23    12    13    1
    24    15     1    2
    25    15    14    1
    26     1     2    1
    27    13    14    1
    28    13     8    1
    29    51    10    1
    30    10     9    1
    31    14     4    2
    32     2    16    1
    33     2     3    2
    34    16    17    1
    35     9     8    1
    36     9    50    1
    37     4     3    1
    38     4     5    1
    39     8     7    1
    40    17    18    2
    41    17    19    1
    42     7     5    1
    43     5     6    2
    44    19    20    2
    45    19    24    1
    46    20    21    1
    47    24    23    2
    48    26    25    2
    49    21    25    1
    50    21    22    2
    51    23    22    1
    52    23    28    1
    53    25    27    2
    54    30    28    2
    55    28    29    2
    56    49    52    1
    57    50    53    1
    58    51    54    1
