@<TRIPOS>MOLECULE
docking1_4ntj_P2Y12_Aspirin
 14 14 0 0 0
SMALL
GASTEIGER

@<TRIPOS>ATOM
      1  C5         7.4100   99.7440   49.7280 C.2     1  UNK1        0.1546
      2  C6         8.3780  100.0440   48.7690 C.2     1  UNK1        0.1100
      3  C7         6.5890   98.6290   49.5630 C.2     1  UNK1        0.0378
      4  C8         8.5250   99.2280   47.6470 C.2     1  UNK1        0.0095
      5  C9         6.7350   97.8130   48.4420 C.2     1  UNK1        0.0031
      6  C10        7.7020   98.1140   47.4840 C.2     1  UNK1        0.0004
      7  O1         7.2530  100.5270   50.8320 O.3     1  UNK1       -0.4239
      8  C12        6.1190  101.3520   50.7910 C.2     1  UNK1        0.3220
      9  O4         5.9550  102.3080   50.0440 O.2     1  UNK1       -0.2497
     10  C13        5.1160  100.8940   51.8080 C.3     1  UNK1        0.1216
     11  C11        9.2480  101.2030   48.9220 C.2     1  UNK1        0.3410
     12  O3        10.4320  101.1840   49.2460 O.2     1  UNK1       -0.2450
     13  O2         8.5930  102.3670   48.6600 O.3     1  UNK1       -0.4770
     14 H           7.6888  102.3508   48.4148 H       1  UNK1        0.2954
@<TRIPOS>BOND
     1     6     4    2
     2     6     5    1
     3     4     2    1
     4     5     3    2
     5    13    11    1
     6     2    11    1
     7     2     1    2
     8    11    12    2
     9     3     1    1
    10     1     7    1
    11     9     8    2
    12     8     7    1
    13     8    10    1
    14    13    14    1
