@<TRIPOS>MOLECULE
docking1_4ntj_P2Y12_Sorbinil_meeko
 19 21 0 0 0
SMALL
GASTEIGER

@<TRIPOS>ATOM
      1  F          7.4730   98.2320   48.6220 F       1  UNL1       -0.2042
      2  O          9.4230  103.0320   50.4580 O.2     1  UNL1       -0.4756
      3  O          5.7060  103.6390   48.9180 O.2     1  UNL1       -0.2726
      4  O          3.4460  101.5550   52.3170 O.2     1  UNL1       -0.2524
      5  N          5.7270  101.8330   51.8890 N.am    1  UNL1       -0.2806
      6  N          4.2570  102.7170   50.4740 N.am    1  UNL1       -0.2381
      7  C          6.5740  102.4840   50.9020 C.3     1  UNL1        0.1529
      8  C          7.3340  103.6390   51.5640 C.3     1  UNL1        0.0786
      9  C          7.5110  101.5270   50.2040 C.2     1  UNL1        0.0384
     10  C          5.4920  103.0270   49.9570 C.2     1  UNL1        0.2493
     11  C          8.4850  104.0870   50.6780 C.3     1  UNL1        0.2079
     12  C          8.8640  101.8550   50.0270 C.2     1  UNL1        0.1366
     13  C          4.3640  101.9910   51.6370 C.2     1  UNL1        0.3070
     14  C          7.0540  100.2940   49.7080 C.2     1  UNL1        0.0304
     15  C          9.7420  100.9560   49.4140 C.2     1  UNL1        0.0389
     16  C          7.9290   99.4040   49.0820 C.2     1  UNL1        0.1401
     17  C          9.2730   99.7340   48.9390 C.2     1  UNL1        0.0327
     18 H           6.0804  101.3307   52.6585 H       1  UNL1        0.1516
     19 H           3.4024  102.9816   50.0631 H       1  UNL1        0.1591
@<TRIPOS>BOND
     1     1    16    1
     2     3    10    2
     3    17    16    2
     4    17    15    1
     5    16    14    1
     6    15    12    2
     7    14     9    2
     8    10     6   am
     9    10     7    1
    10    12     9    1
    11    12     2    1
    12     9     7    1
    13     2    11    1
    14     6    13   am
    15    11     8    1
    16     7     8    1
    17     7     5    1
    18    13     5   am
    19    13     4    2
    20     5    18    1
    21     6    19    1
