@<TRIPOS>MOLECULE
docking1_4ntj_P2Y12_bergenin_dft_6_311g
 28 30 0 0 0
SMALL
GASTEIGER

@<TRIPOS>ATOM
      1  O1        17.3610   99.7270   52.0310 O.3     1  RES1       -0.3453
      2  O2        15.1180  102.5760   51.5610 O.3     1  RES1       -0.4437
      3  O7        13.5990  103.4760   52.8920 O.2     1  RES1       -0.2449
      4  C10       16.3360  101.8180   51.5200 C.3     1  RES1        0.2293
      5  C11       16.1190  100.4110   52.0740 C.3     1  RES1        0.1831
      6  C12       16.8340  101.7530   50.0870 C.3     1  RES1        0.1826
      7  C13       18.0530  100.8210   49.9930 C.3     1  RES1        0.1704
      8  C14       17.8040   99.4830   50.6940 C.3     1  RES1        0.1740
      9  C15       15.5890  100.5170   53.4790 C.2     1  RES1        0.0514
     10  C17       14.8260  101.6500   53.8030 C.2     1  RES1        0.0802
     11  C18       14.4650  102.6550   52.7520 C.2     1  RES1        0.3412
     12  C19       15.7580   99.5360   54.4580 C.2     1  RES1        0.1693
     13  C20       14.2700  101.8310   55.0670 C.2     1  RES1        0.0462
     14  C21       15.2540   99.7490   55.7440 C.2     1  RES1        0.2053
     15  C22       14.4920  100.8760   56.0470 C.2     1  RES1        0.1710
     16  C16       19.0360   98.6040   50.8310 C.3     1  RES1        0.1692
     17  O5        20.2210   99.3820   50.7920 O.3     1  RES1       -0.3794
     18  O4        18.4510  100.6680   48.6290 O.3     1  RES1       -0.3794
     19  O3        17.1660  103.0560   49.6490 O.3     1  RES1       -0.3785
     20  O6        16.3940   98.3600   54.1910 O.2     1  RES1       -0.5029
     21  O8        15.4440   98.7720   56.7070 O.2     1  RES1       -0.4654
     22  C23       14.3420   97.8410   56.8220 C.3     1  RES1        0.2528
     23  O9        13.9570  101.0370   57.2870 O.2     1  RES1       -0.5028
     24 H          20.9925   98.8008   50.8810 H       1  RES1        0.2105
     25 H          18.5950  101.5422   48.2342 H       1  RES1        0.2105
     26 H          17.4846  103.0180   48.7336 H       1  RES1        0.2106
     27 H          16.7390   98.1978   53.3351 H       1  RES1        0.2923
     28 H          13.4461  101.7979   57.4816 H       1  RES1        0.2923
@<TRIPOS>BOND
     1    18     7    1
     2    19     6    1
     3     7     6    1
     4     7     8    1
     5     6     4    1
     6     8    16    1
     7     8     1    1
     8    17    16    1
     9     4     2    1
    10     4     5    1
    11     2    11    1
    12     1     5    1
    13     5     9    1
    14    11     3    2
    15    11    10    1
    16     9    10    2
    17     9    12    1
    18    10    13    1
    19    20    12    1
    20    12    14    2
    21    13    15    2
    22    14    15    1
    23    14    21    1
    24    15    23    1
    25    21    22    1
    26    17    24    1
    27    18    25    1
    28    19    26    1
    29    20    27    1
    30    23    28    1
