@<TRIPOS>MOLECULE
docking1_4ntj_P2Y12_ACD5b_III
 38 41 0 0 0
SMALL
GASTEIGER

@<TRIPOS>ATOM
      1  C2        16.9050  100.5850   50.4680 C.2     1  non1        0.2062
      2  C3        16.7320  101.5810   49.5660 C.2     1  non1        0.1856
      3  C4        16.0910  102.7110   49.9190 C.2     1  non1        0.0472
      4  C5        15.6270  102.8630   51.1760 C.2     1  non1        0.0802
      5  C6        14.9510  104.1600   51.4950 C.2     1  non1        0.3412
      6  O3        15.0430  105.1490   50.7800 O.2     1  non1       -0.2449
      7  O4        14.2290  104.2000   52.6470 O.3     1  non1       -0.4437
      8  C7        13.9460  102.9610   53.3200 C.3     1  non1        0.2293
      9  C8        13.3740  103.2840   54.6980 C.3     1  non1        0.1826
     10  C9        13.1500  101.9990   55.5020 C.3     1  non1        0.1704
     11  C10       14.4250  101.1390   55.5110 C.3     1  non1        0.1740
     12  O8        14.9170  100.9100   54.1700 O.3     1  non1       -0.3453
     13  C12       15.2180  102.1330   53.4850 C.3     1  non1        0.1831
     14  C13       15.7890  101.8810   52.0990 C.2     1  non1        0.0514
     15  C14       16.4200  100.7310   51.7310 C.2     1  non1        0.1693
     16  O2        17.1860  101.4350   48.2380 O.3     1  non1       -0.4178
     17  C21       18.2320  102.2600   47.9280 C.2     1  non1        0.3458
     18  O12       19.1450  102.5990   48.6710 O.2     1  non1       -0.2445
     19  C16       18.0940  102.7530   46.5220 C.2     1  non1        0.0777
     20  C15       17.8590  101.8380   45.5510 C.2     1  non1        0.0305
     21  C20       17.7220  102.2610   44.2770 C.2     1  non1        0.1431
     22  C19       17.8090  103.5690   43.9510 C.2     1  non1        0.0241
     23  C18       18.0390  104.4720   44.9270 C.2     1  non1        0.0019
     24  C17       18.1790  104.0670   46.2070 C.2     1  non1        0.0066
     25  N1        17.4740  101.2770   43.2170 N.pl3   1  non1        0.0577
     26  O10       16.3150  100.8610   43.0690 O.2     1  non1       -0.1261
     27  O11       18.4370  100.9120   42.5250 O.2     1  non1       -0.1261
     28  O1        17.5420   99.4200   50.0390 O.2     1  non1       -0.4654
     29  C1        18.9020   99.3460   50.4700 C.3     1  non1        0.2528
     30  O9        16.5720   99.6830   52.6290 O.2     1  non1       -0.5029
     31  C11       14.1690   99.7660   56.1440 C.3     1  non1        0.1692
     32  O7        15.4030   99.1030   56.4280 O.3     1  non1       -0.3794
     33  O5        12.1200  103.9730   54.5780 O.3     1  non1       -0.3785
     34  O6        12.7830  102.3580   56.8360 O.3     1  non1       -0.3794
     35 H          17.0081   98.8975   52.3629 H       1  non1        0.2923
     36 H          15.2208   98.2379   56.8272 H       1  non1        0.2105
     37 H          12.2471  104.7898   54.0704 H       1  non1        0.2106
     38 H          11.9784  102.8994   56.8154 H       1  non1        0.2105
@<TRIPOS>BOND
     1    27    25    2
     2    26    25    2
     3    25    21    1
     4    22    21    2
     5    22    23    1
     6    21    20    1
     7    23    24    2
     8    20    19    2
     9    24    19    1
    10    19    17    1
    11    17    16    1
    12    17    18    2
    13    16     2    1
    14     2     3    1
    15     2     1    2
    16     3     4    2
    17    28     1    1
    18    28    29    1
    19     1    15    1
    20     6     5    2
    21     4     5    1
    22     4    14    1
    23     5     7    1
    24    15    14    2
    25    15    30    1
    26    14    13    1
    27     7     8    1
    28     8    13    1
    29     8     9    1
    30    13    12    1
    31    12    11    1
    32    33     9    1
    33     9    10    1
    34    10    11    1
    35    10    34    1
    36    11    31    1
    37    31    32    1
    38    30    35    1
    39    32    36    1
    40    33    37    1
    41    34    38    1
