@<TRIPOS>MOLECULE
docking1_4ntj_P2Y12_Epalrestat
 22 23 0 0 0
SMALL
GASTEIGER

@<TRIPOS>ATOM
      1  S         16.8350  102.3000   51.0880 S.3     1  UNL1       -0.0831
      2  S         15.7340  100.6960   53.3820 S.2     1  UNL1       -0.0275
      3  O         18.4350   99.3420   49.2860 O.2     1  UNL1       -0.2736
      4  N         17.1860   99.7500   51.2340 N.am    1  UNL1       -0.2367
      5  C         17.7230  101.5500   49.8270 C.3     1  UNL1        0.1342
      6  C         17.8410  100.0910   50.0500 C.2     1  UNL1        0.2409
      7  C         16.5820  100.7810   51.9450 C.2     1  UNL1        0.1176
      8  C         18.2520  102.1760   48.7740 C.3     1  UNL1        0.0424
      9  C         17.7620  102.1470   47.3930 C.2     1  UNL1       -0.0426
     10  C         18.6330  102.3940   46.3920 C.2     1  UNL1       -0.0084
     11  C         16.3040  101.8270   47.1770 C.3     1  UNL1        0.0264
     12  C         18.3120  102.4180   44.9610 C.2     1  UNL1       -0.0006
     13  C         18.1170  101.2220   44.2820 C.2     1  UNL1       -0.0000
     14  C         17.8130  101.2450   42.9210 C.2     1  UNL1       -0.0000
     15  C         17.7070  102.4630   42.2500 C.2     1  UNL1       -0.0000
     16  C         17.9040  103.6590   42.9410 C.2     1  UNL1       -0.0000
     17  C         18.2080  103.6360   44.3020 C.2     1  UNL1       -0.0000
     18  C         17.1360   98.3700   51.7070 C.3     1  UNL1        0.2086
     19  C         18.3850   97.9570   52.4450 C.2     1  UNL1        0.3347
     20  O         18.4530   97.8900   53.6650 O.2     1  UNL1       -0.2484
     21  O         19.4260   97.6700   51.6280 O.3     1  UNL1       -0.4790
     22 H          19.3245   97.7362   50.6989 H       1  UNL1        0.2951
@<TRIPOS>BOND
     1    15    14    2
     2    15    16    1
     3    14    13    1
     4    16    17    2
     5    13    12    2
     6    17    12    1
     7    12    10    1
     8    10     9    2
     9    11     9    1
    10     9     8    1
    11     8     5    1
    12     3     6    2
    13     5     6    1
    14     5     1    1
    15     6     4   am
    16     1     7    1
    17     4    18    1
    18     4     7    1
    19    21    19    1
    20    18    19    1
    21     7     2    2
    22    19    20    2
    23    21    22    1
