@<TRIPOS>MOLECULE
docking1_4ntj_P2Y12_ACD5b_I
 41 44 0 0 0
SMALL
GASTEIGER

@<TRIPOS>ATOM
      1  C2        16.8100  100.5480   50.6230 C.2     1  non1        0.2062
      2  C3        16.6290  101.5510   49.7300 C.2     1  non1        0.1856
      3  C11       15.9800  102.6730   50.0920 C.2     1  non1        0.0472
      4  C12       15.5160  102.8120   51.3500 C.2     1  non1        0.0802
      5  C13       14.8380  104.1040   51.6820 C.2     1  non1        0.3412
      6  O8        14.9240  105.0980   50.9720 O.2     1  non1       -0.2449
      7  O9        14.1260  104.1360   52.8400 O.3     1  non1       -0.4437
      8  C14       13.8420  102.8920   53.5020 C.3     1  non1        0.2293
      9  C15       13.2800  103.2020   54.8870 C.3     1  non1        0.1826
     10  C16       13.0530  101.9080   55.6770 C.3     1  non1        0.1704
     11  C17       14.3200  101.0360   55.6640 C.3     1  non1        0.1740
     12  O13       14.8090  100.8280   54.3200 O.3     1  non1       -0.3453
     13  C19       15.1130  102.0590   53.6530 C.3     1  non1        0.1831
     14  C20       15.6850  101.8230   52.2650 C.2     1  non1        0.0514
     15  C21       16.3250  100.6810   51.8870 C.2     1  non1        0.1693
     16  O2        17.0870  101.4250   48.4000 O.3     1  non1       -0.4178
     17  C4        18.2030  102.1700   48.1400 C.2     1  non1        0.3459
     18  O3        19.1900  102.3000   48.8530 O.2     1  non1       -0.2445
     19  C5        18.0440  102.8850   46.8330 C.2     1  non1        0.0793
     20  C6        17.9010  102.2230   45.6600 C.2     1  non1        0.0306
     21  C7        17.7720  102.9320   44.5160 C.2     1  non1        0.1447
     22  C8        17.7830  104.2820   44.5090 C.2     1  non1        0.0481
     23  C9        17.9310  104.9170   45.6920 C.2     1  non1        0.1447
     24  C10       18.0640  104.2390   46.8530 C.2     1  non1        0.0306
     25  N2        17.6170  102.2110   43.2450 N.pl3   1  non1        0.0577
     26  O6        17.8930  102.8160   42.2010 O.2     1  non1       -0.1261
     27  O7        17.2160  101.0400   43.2900 O.2     1  non1       -0.1261
     28  N1        17.9490  106.3860   45.7170 N.pl3   1  non1        0.0577
     29  O4        16.8590  106.9760   45.7440 O.2     1  non1       -0.1261
     30  O5        19.0500  106.9530   45.7120 O.2     1  non1       -0.1261
     31  O1        17.4630   99.3980   50.1790 O.2     1  non1       -0.4654
     32  C1        18.8320   99.3350   50.5820 C.3     1  non1        0.2528
     33  O14       16.4860   99.6290   52.7800 O.2     1  non1       -0.5029
     34  C18       14.0510   99.6520   56.2730 C.3     1  non1        0.1692
     35  O12       15.2710   98.9270   56.4310 O.3     1  non1       -0.3794
     36  O10       12.0290  103.8980   54.7820 O.3     1  non1       -0.3785
     37  O11       12.7010  102.2530   57.0190 O.3     1  non1       -0.3794
     38 H          16.9278   98.8482   52.5094 H       1  non1        0.2923
     39 H          15.0825   98.0569   56.8162 H       1  non1        0.2105
     40 H          12.1573  104.7203   54.2837 H       1  non1        0.2106
     41 H          11.9014  102.8022   57.0126 H       1  non1        0.2105
@<TRIPOS>BOND
     1    26    25    2
     2    25    27    2
     3    25    21    1
     4    22    21    2
     5    22    23    1
     6    21    20    1
     7    20    19    2
     8    23    28    1
     9    23    24    2
    10    30    28    2
    11    28    29    2
    12    19    24    1
    13    19    17    1
    14    17    16    1
    15    17    18    2
    16    16     2    1
    17     2     3    1
    18     2     1    2
    19     3     4    2
    20    31    32    1
    21    31     1    1
    22     1    15    1
    23     6     5    2
    24     4     5    1
    25     4    14    1
    26     5     7    1
    27    15    14    2
    28    15    33    1
    29    14    13    1
    30     7     8    1
    31     8    13    1
    32     8     9    1
    33    13    12    1
    34    12    11    1
    35    36     9    1
    36     9    10    1
    37    11    10    1
    38    11    34    1
    39    10    37    1
    40    34    35    1
    41    33    38    1
    42    35    39    1
    43    36    40    1
    44    37    41    1
