MODEL 1
REMARK VINA RESULT:    -9.141      0.000      0.000
REMARK INTER + INTRA:         -14.214
REMARK INTER:                 -13.417
REMARK INTRA:                  -0.798
REMARK UNBOUND:                -0.798
REMARK  10 active torsions:
REMARK  status: ('A' for Active; 'I' for Inactive)
REMARK    1  A    between atoms: O1_2  and  C2_3 
REMARK    2  A    between atoms: C3_4  and  O2_5 
REMARK    3  A    between atoms: C21_33  and  O2_5 
REMARK    4  A    between atoms: C8_12  and  O5_13 
REMARK    5  A    between atoms: C9_14  and  O6_15 
REMARK    6  A    between atoms: C10_16  and  C11_17 
REMARK    7  A    between atoms: C11_17  and  O7_18 
REMARK    8  A    between atoms: C14_22  and  O9_23 
REMARK    9  A    between atoms: C16_25  and  C21_33 
REMARK   10  A    between atoms: C20_29  and  N1_30 
ROOT
ATOM      1  C2  non d   1      16.905 100.585  50.468  0.00  0.00     0.136 A 
ATOM      2  C3  non d   1      16.732 101.581  49.566  0.00  0.00     0.116 A 
ATOM      3  C4  non d   1      16.091 102.711  49.919  0.00  0.00     0.058 A 
ATOM      4  C5  non d   1      15.627 102.863  51.176  0.00  0.00     0.054 A 
ATOM      5  C6  non d   1      14.951 104.160  51.495  0.00  0.00     0.294 C 
ATOM      6  O3  non d   1      15.043 105.149  50.780  0.00  0.00    -0.259 OA
ATOM      7  O4  non d   1      14.229 104.200  52.647  0.00  0.00    -0.306 OA
ATOM      8  C7  non d   1      13.946 102.961  53.320  0.00  0.00     0.197 C 
ATOM      9  C8  non d   1      13.374 103.284  54.698  0.00  0.00     0.181 C 
ATOM     10  C9  non d   1      13.150 101.999  55.502  0.00  0.00     0.180 C 
ATOM     11  C10 non d   1      14.425 101.139  55.511  0.00  0.00     0.177 C 
ATOM     12  O8  non d   1      14.917 100.910  54.170  0.00  0.00    -0.368 OA
ATOM     13  C12 non d   1      15.218 102.133  53.485  0.00  0.00     0.191 C 
ATOM     14  C13 non d   1      15.789 101.881  52.099  0.00  0.00     0.026 A 
ATOM     15  C14 non d   1      16.420 100.731  51.731  0.00  0.00     0.112 A 
ENDROOT
BRANCH   2  16
ATOM     16  O2  non d   1      17.186 101.435  48.238  0.00  0.00    -0.272 OA
BRANCH  16  17
ATOM     17  C21 non d   1      18.232 102.260  47.928  0.00  0.00     0.298 C 
ATOM     18  O12 non d   1      19.145 102.599  48.671  0.00  0.00    -0.259 OA
BRANCH  17  19
ATOM     19  C16 non d   1      18.094 102.753  46.522  0.00  0.00     0.042 A 
ATOM     20  C15 non d   1      17.859 101.838  45.551  0.00  0.00     0.053 A 
ATOM     21  C20 non d   1      17.722 102.261  44.277  0.00  0.00     0.103 A 
ATOM     22  C19 non d   1      17.809 103.569  43.951  0.00  0.00     0.036 A 
ATOM     23  C18 non d   1      18.039 104.472  44.927  0.00  0.00     0.003 A 
ATOM     24  C17 non d   1      18.179 104.067  46.207  0.00  0.00     0.018 A 
BRANCH  21  25
ATOM     25  N1  non d   1      17.474 101.277  43.217  0.00  0.00    -0.116 N 
ATOM     26  O10 non d   1      16.315 100.861  43.069  0.00  0.00    -0.532 OA
ATOM     27  O11 non d   1      18.437 100.912  42.525  0.00  0.00    -0.532 OA
ENDBRANCH  21  25
ENDBRANCH  17  19
ENDBRANCH  16  17
ENDBRANCH   2  16
BRANCH   1  28
ATOM     28  O1  non d   1      17.542  99.420  50.039  0.00  0.00    -0.351 OA
ATOM     29  C1  non d   1      18.902  99.346  50.470  0.00  0.00     0.210 C 
ENDBRANCH   1  28
BRANCH  15  30
ATOM     30  O9  non d   1      16.572  99.683  52.629  0.00  0.00    -0.357 OA
ATOM     31  H15 non d   1      16.707 100.004  53.541  0.00  0.00     0.217 HD
ENDBRANCH  15  30
BRANCH  11  32
ATOM     32  C11 non d   1      14.169  99.766  56.144  0.00  0.00     0.198 C 
BRANCH  32  33
ATOM     33  O7  non d   1      15.403  99.103  56.428  0.00  0.00    -0.398 OA
ATOM     34  H13 non d   1      16.046  99.800  56.656  0.00  0.00     0.209 HD
ENDBRANCH  32  33
ENDBRANCH  11  32
BRANCH   9  35
ATOM     35  O5  non d   1      12.120 103.973  54.578  0.00  0.00    -0.390 OA
ATOM     36  H7  non d   1      11.428 103.350  54.875  0.00  0.00     0.210 HD
ENDBRANCH   9  35
BRANCH  10  37
ATOM     37  O6  non d   1      12.783 102.358  56.836  0.00  0.00    -0.390 OA
ATOM     38  H9  non d   1      13.418 101.890  57.416  0.00  0.00     0.210 HD
ENDBRANCH  10  37
TORSDOF 10
ENDMDL
MODEL 2
REMARK VINA RESULT:    -8.563      5.606      9.116
REMARK INTER + INTRA:         -13.365
REMARK INTER:                 -12.840
REMARK INTRA:                  -0.525
REMARK UNBOUND:                -0.798
REMARK  10 active torsions:
REMARK  status: ('A' for Active; 'I' for Inactive)
REMARK    1  A    between atoms: O1_2  and  C2_3 
REMARK    2  A    between atoms: C3_4  and  O2_5 
REMARK    3  A    between atoms: C21_33  and  O2_5 
REMARK    4  A    between atoms: C8_12  and  O5_13 
REMARK    5  A    between atoms: C9_14  and  O6_15 
REMARK    6  A    between atoms: C10_16  and  C11_17 
REMARK    7  A    between atoms: C11_17  and  O7_18 
REMARK    8  A    between atoms: C14_22  and  O9_23 
REMARK    9  A    between atoms: C16_25  and  C21_33 
REMARK   10  A    between atoms: C20_29  and  N1_30 
ROOT
ATOM      1  C2  non d   1      20.625 104.834  48.392  0.00  0.00     0.136 A 
ATOM      2  C3  non d   1      19.684 105.614  47.809  0.00  0.00     0.116 A 
ATOM      3  C4  non d   1      20.000 106.852  47.382  0.00  0.00     0.058 A 
ATOM      4  C5  non d   1      21.257 107.317  47.522  0.00  0.00     0.054 A 
ATOM      5  C6  non d   1      21.532 108.691  46.996  0.00  0.00     0.294 C 
ATOM      6  O3  non d   1      20.772 109.274  46.232  0.00  0.00    -0.259 OA
ATOM      7  O4  non d   1      22.694 109.272  47.395  0.00  0.00    -0.306 OA
ATOM      8  C7  non d   1      23.426 108.666  48.475  0.00  0.00     0.197 C 
ATOM      9  C8  non d   1      24.800 109.328  48.554  0.00  0.00     0.181 C 
ATOM     10  C9  non d   1      25.664 108.648  49.621  0.00  0.00     0.180 C 
ATOM     11  C10 non d   1      25.686 107.125  49.407  0.00  0.00     0.177 C 
ATOM     12  O8  non d   1      24.347 106.586  49.310  0.00  0.00    -0.368 OA
ATOM     13  C12 non d   1      23.603 107.169  48.232  0.00  0.00     0.191 C 
ATOM     14  C13 non d   1      22.219 106.555  48.101  0.00  0.00     0.026 A 
ATOM     15  C14 non d   1      21.890 105.311  48.550  0.00  0.00     0.112 A 
ENDROOT
BRANCH   2  16
ATOM     16  O2  non d   1      18.355 105.159  47.675  0.00  0.00    -0.272 OA
BRANCH  16  17
ATOM     17  C21 non d   1      17.867 105.276  46.402  0.00  0.00     0.298 C 
ATOM     18  O12 non d   1      17.451 106.295  45.865  0.00  0.00    -0.259 OA
BRANCH  17  19
ATOM     19  C16 non d   1      17.865 103.939  45.731  0.00  0.00     0.042 A 
ATOM     20  C15 non d   1      17.788 103.910  44.379  0.00  0.00     0.053 A 
ATOM     21  C20 non d   1      17.793 102.715  43.751  0.00  0.00     0.103 A 
ATOM     22  C19 non d   1      17.879 101.555  44.437  0.00  0.00     0.036 A 
ATOM     23  C18 non d   1      17.961 101.596  45.784  0.00  0.00     0.003 A 
ATOM     24  C17 non d   1      17.956 102.782  46.428  0.00  0.00     0.018 A 
BRANCH  21  25
ATOM     25  N1  non d   1      17.703 102.672  42.287  0.00  0.00    -0.116 N 
ATOM     26  O10 non d   1      17.379 103.712  41.693  0.00  0.00    -0.532 OA
ATOM     27  O11 non d   1      17.954 101.597  41.720  0.00  0.00    -0.532 OA
ENDBRANCH  21  25
ENDBRANCH  17  19
ENDBRANCH  16  17
ENDBRANCH   2  16
BRANCH   1  28
ATOM     28  O1  non d   1      20.236 103.575  48.851  0.00  0.00    -0.351 OA
ATOM     29  C1  non d   1      19.511 103.636  50.080  0.00  0.00     0.210 C 
ENDBRANCH   1  28
BRANCH  15  30
ATOM     30  O9  non d   1      22.830 104.512  49.186  0.00  0.00    -0.357 OA
ATOM     31  H15 non d   1      23.172 104.931  49.998  0.00  0.00     0.217 HD
ENDBRANCH  15  30
BRANCH  11  32
ATOM     32  C11 non d   1      26.384 106.407  50.570  0.00  0.00     0.198 C 
BRANCH  32  33
ATOM     33  O7  non d   1      27.046 105.228  50.109  0.00  0.00    -0.398 OA
ATOM     34  H13 non d   1      27.745 105.030  50.759  0.00  0.00     0.209 HD
ENDBRANCH  32  33
ENDBRANCH  11  32
BRANCH   9  35
ATOM     35  O5  non d   1      24.674 110.719  48.886  0.00  0.00    -0.390 OA
ATOM     36  H7  non d   1      24.921 111.222  48.085  0.00  0.00     0.210 HD
ENDBRANCH   9  35
BRANCH  10  37
ATOM     37  O6  non d   1      26.988 109.181  49.539  0.00  0.00    -0.390 OA
ATOM     38  H9  non d   1      27.131 109.651  50.386  0.00  0.00     0.210 HD
ENDBRANCH  10  37
TORSDOF 10
ENDMDL
MODEL 3
REMARK VINA RESULT:    -8.444      6.374     10.047
REMARK INTER + INTRA:         -13.192
REMARK INTER:                 -12.185
REMARK INTRA:                  -1.007
REMARK UNBOUND:                -0.798
REMARK  10 active torsions:
REMARK  status: ('A' for Active; 'I' for Inactive)
REMARK    1  A    between atoms: O1_2  and  C2_3 
REMARK    2  A    between atoms: C3_4  and  O2_5 
REMARK    3  A    between atoms: C21_33  and  O2_5 
REMARK    4  A    between atoms: C8_12  and  O5_13 
REMARK    5  A    between atoms: C9_14  and  O6_15 
REMARK    6  A    between atoms: C10_16  and  C11_17 
REMARK    7  A    between atoms: C11_17  and  O7_18 
REMARK    8  A    between atoms: C14_22  and  O9_23 
REMARK    9  A    between atoms: C16_25  and  C21_33 
REMARK   10  A    between atoms: C20_29  and  N1_30 
ROOT
ATOM      1  C2  non d   1      20.601 108.221  46.439  0.00  0.00     0.136 A 
ATOM      2  C3  non d   1      20.241 106.915  46.392  0.00  0.00     0.116 A 
ATOM      3  C4  non d   1      20.877 106.010  47.160  0.00  0.00     0.058 A 
ATOM      4  C5  non d   1      21.867 106.399  47.988  0.00  0.00     0.054 A 
ATOM      5  C6  non d   1      22.504 105.335  48.828  0.00  0.00     0.294 C 
ATOM      6  O3  non d   1      22.002 104.231  48.992  0.00  0.00    -0.259 OA
ATOM      7  O4  non d   1      23.680 105.660  49.429  0.00  0.00    -0.306 OA
ATOM      8  C7  non d   1      24.351 106.863  49.014  0.00  0.00     0.197 C 
ATOM      9  C8  non d   1      25.479 107.147  50.003  0.00  0.00     0.181 C 
ATOM     10  C9  non d   1      26.163 108.477  49.670  0.00  0.00     0.180 C 
ATOM     11  C10 non d   1      25.122 109.599  49.529  0.00  0.00     0.177 C 
ATOM     12  O8  non d   1      24.073 109.234  48.602  0.00  0.00    -0.368 OA
ATOM     13  C12 non d   1      23.383 108.043  49.003  0.00  0.00     0.191 C 
ATOM     14  C13 non d   1      22.246 107.701  48.055  0.00  0.00     0.026 A 
ATOM     15  C14 non d   1      21.614 108.610  47.261  0.00  0.00     0.112 A 
ENDROOT
BRANCH   2  16
ATOM     16  O2  non d   1      19.225 106.480  45.515  0.00  0.00    -0.272 OA
BRANCH  16  17
ATOM     17  C21 non d   1      18.165 105.903  46.158  0.00  0.00     0.298 C 
ATOM     18  O12 non d   1      17.397 106.446  46.943  0.00  0.00    -0.259 OA
BRANCH  17  19
ATOM     19  C16 non d   1      18.081 104.452  45.802  0.00  0.00     0.042 A 
ATOM     20  C15 non d   1      18.088 104.122  44.488  0.00  0.00     0.053 A 
ATOM     21  C20 non d   1      18.022 102.818  44.144  0.00  0.00     0.103 A 
ATOM     22  C19 non d   1      17.955 101.842  45.074  0.00  0.00     0.036 A 
ATOM     23  C18 non d   1      17.954 102.182  46.380  0.00  0.00     0.003 A 
ATOM     24  C17 non d   1      18.018 103.481  46.743  0.00  0.00     0.018 A 
BRANCH  21  25
ATOM     25  N1  non d   1      18.022 102.450  42.723  0.00  0.00    -0.116 N 
ATOM     26  O10 non d   1      18.388 101.305  42.418  0.00  0.00    -0.532 OA
ATOM     27  O11 non d   1      17.660 103.306  41.901  0.00  0.00    -0.532 OA
ENDBRANCH  21  25
ENDBRANCH  17  19
ENDBRANCH  16  17
ENDBRANCH   2  16
BRANCH   1  28
ATOM     28  O1  non d   1      19.936 109.111  45.596  0.00  0.00    -0.351 OA
ATOM     29  C1  non d   1      18.860 109.788  46.248  0.00  0.00     0.210 C 
ENDBRANCH   1  28
BRANCH  15  30
ATOM     30  O9  non d   1      21.994 109.945  47.265  0.00  0.00    -0.357 OA
ATOM     31  H15 non d   1      21.222 110.542  47.277  0.00  0.00     0.217 HD
ENDBRANCH  15  30
BRANCH  11  32
ATOM     32  C11 non d   1      25.761 110.893  49.010  0.00  0.00     0.198 C 
BRANCH  32  33
ATOM     33  O7  non d   1      25.899 110.853  47.588  0.00  0.00    -0.398 OA
ATOM     34  H13 non d   1      24.996 110.829  47.222  0.00  0.00     0.209 HD
ENDBRANCH  32  33
ENDBRANCH  11  32
BRANCH   9  35
ATOM     35  O5  non d   1      26.464 106.102  49.962  0.00  0.00    -0.390 OA
ATOM     36  H7  non d   1      25.993 105.283  49.711  0.00  0.00     0.210 HD
ENDBRANCH   9  35
BRANCH  10  37
ATOM     37  O6  non d   1      27.089 108.784  50.715  0.00  0.00    -0.390 OA
ATOM     38  H9  non d   1      27.651 107.987  50.806  0.00  0.00     0.210 HD
ENDBRANCH  10  37
TORSDOF 10
ENDMDL
MODEL 4
REMARK VINA RESULT:    -8.299      1.583      3.744
REMARK INTER + INTRA:         -12.979
REMARK INTER:                 -12.450
REMARK INTRA:                  -0.529
REMARK UNBOUND:                -0.798
REMARK  10 active torsions:
REMARK  status: ('A' for Active; 'I' for Inactive)
REMARK    1  A    between atoms: O1_2  and  C2_3 
REMARK    2  A    between atoms: C3_4  and  O2_5 
REMARK    3  A    between atoms: C21_33  and  O2_5 
REMARK    4  A    between atoms: C8_12  and  O5_13 
REMARK    5  A    between atoms: C9_14  and  O6_15 
REMARK    6  A    between atoms: C10_16  and  C11_17 
REMARK    7  A    between atoms: C11_17  and  O7_18 
REMARK    8  A    between atoms: C14_22  and  O9_23 
REMARK    9  A    between atoms: C16_25  and  C21_33 
REMARK   10  A    between atoms: C20_29  and  N1_30 
ROOT
ATOM      1  C2  non d   1      16.491 102.483  50.570  0.00  0.00     0.136 A 
ATOM      2  C3  non d   1      17.384 101.837  49.783  0.00  0.00     0.116 A 
ATOM      3  C4  non d   1      17.730 100.565  50.055  0.00  0.00     0.058 A 
ATOM      4  C5  non d   1      17.182  99.923  51.106  0.00  0.00     0.054 A 
ATOM      5  C6  non d   1      17.600  98.501  51.324  0.00  0.00     0.294 C 
ATOM      6  O3  non d   1      18.176  97.842  50.468  0.00  0.00    -0.259 OA
ATOM      7  O4  non d   1      17.289  97.956  52.530  0.00  0.00    -0.306 OA
ATOM      8  C7  non d   1      16.842  98.830  53.581  0.00  0.00     0.197 C 
ATOM      9  C8  non d   1      16.305  97.970  54.723  0.00  0.00     0.181 C 
ATOM     10  C9  non d   1      15.717  98.852  55.829  0.00  0.00     0.180 C 
ATOM     11  C10 non d   1      14.712  99.856  55.241  0.00  0.00     0.177 C 
ATOM     12  O8  non d   1      15.290 100.602  54.146  0.00  0.00    -0.368 OA
ATOM     13  C12 non d   1      15.732  99.751  53.081  0.00  0.00     0.191 C 
ATOM     14  C13 non d   1      16.284 100.547  51.910  0.00  0.00     0.026 A 
ATOM     15  C14 non d   1      15.952 101.841  51.643  0.00  0.00     0.112 A 
ENDROOT
BRANCH   2  16
ATOM     16  O2  non d   1      17.990 102.496  48.693  0.00  0.00    -0.272 OA
BRANCH  16  17
ATOM     17  C21 non d   1      17.284 102.378  47.527  0.00  0.00     0.298 C 
ATOM     18  O12 non d   1      16.151 101.933  47.396  0.00  0.00    -0.259 OA
BRANCH  17  19
ATOM     19  C16 non d   1      18.121 102.839  46.375  0.00  0.00     0.042 A 
ATOM     20  C15 non d   1      17.781 102.411  45.135  0.00  0.00     0.053 A 
ATOM     21  C20 non d   1      18.516 102.820  44.080  0.00  0.00     0.103 A 
ATOM     22  C19 non d   1      19.573 103.647  44.231  0.00  0.00     0.036 A 
ATOM     23  C18 non d   1      19.900 104.071  45.470  0.00  0.00     0.003 A 
ATOM     24  C17 non d   1      19.177 103.670  46.537  0.00  0.00     0.018 A 
BRANCH  21  25
ATOM     25  N1  non d   1      18.160 102.357  42.733  0.00  0.00    -0.116 N 
ATOM     26  O10 non d   1      18.336 101.160  42.465  0.00  0.00    -0.532 OA
ATOM     27  O11 non d   1      17.704 103.189  41.934  0.00  0.00    -0.532 OA
ENDBRANCH  21  25
ENDBRANCH  17  19
ENDBRANCH  16  17
ENDBRANCH   2  16
BRANCH   1  28
ATOM     28  O1  non d   1      16.195 103.812  50.266  0.00  0.00    -0.351 OA
ATOM     29  C1  non d   1      17.040 104.736  50.956  0.00  0.00     0.210 C 
ENDBRANCH   1  28
BRANCH  15  30
ATOM     30  O9  non d   1      15.069 102.534  52.460  0.00  0.00    -0.357 OA
ATOM     31  H15 non d   1      15.538 103.108  53.095  0.00  0.00     0.217 HD
ENDBRANCH  15  30
BRANCH  11  32
ATOM     32  C11 non d   1      14.255 100.872  56.296  0.00  0.00     0.198 C 
BRANCH  32  33
ATOM     33  O7  non d   1      13.747 102.053  55.672  0.00  0.00    -0.398 OA
ATOM     34  H13 non d   1      12.789 101.916  55.557  0.00  0.00     0.209 HD
ENDBRANCH  32  33
ENDBRANCH  11  32
BRANCH   9  35
ATOM     35  O5  non d   1      17.353  97.165  55.287  0.00  0.00    -0.390 OA
ATOM     36  H7  non d   1      17.798  96.720  54.539  0.00  0.00     0.210 HD
ENDBRANCH   9  35
BRANCH  10  37
ATOM     37  O6  non d   1      15.075  98.007  56.788  0.00  0.00    -0.390 OA
ATOM     38  H9  non d   1      14.463  97.445  56.270  0.00  0.00     0.210 HD
ENDBRANCH  10  37
TORSDOF 10
ENDMDL
MODEL 5
REMARK VINA RESULT:    -8.240      1.751      2.097
REMARK INTER + INTRA:         -12.892
REMARK INTER:                 -11.948
REMARK INTRA:                  -0.944
REMARK UNBOUND:                -0.798
REMARK  10 active torsions:
REMARK  status: ('A' for Active; 'I' for Inactive)
REMARK    1  A    between atoms: O1_2  and  C2_3 
REMARK    2  A    between atoms: C3_4  and  O2_5 
REMARK    3  A    between atoms: C21_33  and  O2_5 
REMARK    4  A    between atoms: C8_12  and  O5_13 
REMARK    5  A    between atoms: C9_14  and  O6_15 
REMARK    6  A    between atoms: C10_16  and  C11_17 
REMARK    7  A    between atoms: C11_17  and  O7_18 
REMARK    8  A    between atoms: C14_22  and  O9_23 
REMARK    9  A    between atoms: C16_25  and  C21_33 
REMARK   10  A    between atoms: C20_29  and  N1_30 
ROOT
ATOM      1  C2  non d   1      16.820 100.527  50.691  0.00  0.00     0.136 A 
ATOM      2  C3  non d   1      16.697 101.542  49.803  0.00  0.00     0.116 A 
ATOM      3  C4  non d   1      16.083 102.686  50.161  0.00  0.00     0.058 A 
ATOM      4  C5  non d   1      15.596 102.832  51.410  0.00  0.00     0.054 A 
ATOM      5  C6  non d   1      14.953 104.143  51.736  0.00  0.00     0.294 C 
ATOM      6  O3  non d   1      15.090 105.141  51.040  0.00  0.00    -0.259 OA
ATOM      7  O4  non d   1      14.208 104.187  52.873  0.00  0.00    -0.306 OA
ATOM      8  C7  non d   1      13.872 102.947  53.519  0.00  0.00     0.197 C 
ATOM      9  C8  non d   1      13.280 103.265  54.890  0.00  0.00     0.181 C 
ATOM     10  C9  non d   1      13.000 101.975  55.667  0.00  0.00     0.180 C 
ATOM     11  C10 non d   1      14.248 101.076  55.689  0.00  0.00     0.177 C 
ATOM     12  O8  non d   1      14.762 100.854  54.355  0.00  0.00    -0.368 OA
ATOM     13  C12 non d   1      15.114 102.078  53.697  0.00  0.00     0.191 C 
ATOM     14  C13 non d   1      15.708 101.831  52.320  0.00  0.00     0.026 A 
ATOM     15  C14 non d   1      16.312 100.668  51.946  0.00  0.00     0.112 A 
ENDROOT
BRANCH   2  16
ATOM     16  O2  non d   1      17.175 101.404  48.482  0.00  0.00    -0.272 OA
BRANCH  16  17
ATOM     17  C21 non d   1      18.265 102.187  48.215  0.00  0.00     0.298 C 
ATOM     18  O12 non d   1      19.248 102.346  48.928  0.00  0.00    -0.259 OA
BRANCH  17  19
ATOM     19  C16 non d   1      18.081 102.889  46.907  0.00  0.00     0.042 A 
ATOM     20  C15 non d   1      18.017 104.242  46.919  0.00  0.00     0.053 A 
ATOM     21  C20 non d   1      17.860 104.897  45.750  0.00  0.00     0.103 A 
ATOM     22  C19 non d   1      17.770 104.238  44.574  0.00  0.00     0.036 A 
ATOM     23  C18 non d   1      17.840 102.890  44.574  0.00  0.00     0.003 A 
ATOM     24  C17 non d   1      17.996 102.218  45.734  0.00  0.00     0.018 A 
BRANCH  21  25
ATOM     25  N1  non d   1      17.783 106.363  45.752  0.00  0.00    -0.116 N 
ATOM     26  O10 non d   1      16.659 106.887  45.756  0.00  0.00    -0.532 OA
ATOM     27  O11 non d   1      18.847 107.001  45.748  0.00  0.00    -0.532 OA
ENDBRANCH  21  25
ENDBRANCH  17  19
ENDBRANCH  16  17
ENDBRANCH   2  16
BRANCH   1  28
ATOM     28  O1  non d   1      17.431  99.351  50.257  0.00  0.00    -0.351 OA
ATOM     29  C1  non d   1      18.815  99.289  50.604  0.00  0.00     0.210 C 
ENDBRANCH   1  28
BRANCH  15  30
ATOM     30  O9  non d   1      16.412  99.601  52.830  0.00  0.00    -0.357 OA
ATOM     31  H15 non d   1      17.227  99.649  53.364  0.00  0.00     0.217 HD
ENDBRANCH  15  30
BRANCH  11  32
ATOM     32  C11 non d   1      13.937  99.701  56.294  0.00  0.00     0.198 C 
BRANCH  32  33
ATOM     33  O7  non d   1      15.139  99.046  56.703  0.00  0.00    -0.398 OA
ATOM     34  H13 non d   1      15.285  99.292  57.635  0.00  0.00     0.209 HD
ENDBRANCH  32  33
ENDBRANCH  11  32
BRANCH   9  35
ATOM     35  O5  non d   1      12.050 103.994  54.754  0.00  0.00    -0.390 OA
ATOM     36  H7  non d   1      12.050 104.379  53.856  0.00  0.00     0.210 HD
ENDBRANCH   9  35
BRANCH  10  37
ATOM     37  O6  non d   1      12.615 102.324  56.999  0.00  0.00    -0.390 OA
ATOM     38  H9  non d   1      11.759 102.792  56.907  0.00  0.00     0.210 HD
ENDBRANCH  10  37
TORSDOF 10
ENDMDL
MODEL 6
REMARK VINA RESULT:    -8.224      3.336      9.314
REMARK INTER + INTRA:         -12.868
REMARK INTER:                 -12.049
REMARK INTRA:                  -0.819
REMARK UNBOUND:                -0.798
REMARK  10 active torsions:
REMARK  status: ('A' for Active; 'I' for Inactive)
REMARK    1  A    between atoms: O1_2  and  C2_3 
REMARK    2  A    between atoms: C3_4  and  O2_5 
REMARK    3  A    between atoms: C21_33  and  O2_5 
REMARK    4  A    between atoms: C8_12  and  O5_13 
REMARK    5  A    between atoms: C9_14  and  O6_15 
REMARK    6  A    between atoms: C10_16  and  C11_17 
REMARK    7  A    between atoms: C11_17  and  O7_18 
REMARK    8  A    between atoms: C14_22  and  O9_23 
REMARK    9  A    between atoms: C16_25  and  C21_33 
REMARK   10  A    between atoms: C20_29  and  N1_30 
ROOT
ATOM      1  C2  non d   1      15.620 103.065  51.855  0.00  0.00     0.136 A 
ATOM      2  C3  non d   1      15.676 101.727  52.060  0.00  0.00     0.116 A 
ATOM      3  C4  non d   1      16.387 100.943  51.228  0.00  0.00     0.058 A 
ATOM      4  C5  non d   1      17.057 101.486  50.192  0.00  0.00     0.054 A 
ATOM      5  C6  non d   1      17.846 100.550  49.331  0.00  0.00     0.294 C 
ATOM      6  O3  non d   1      18.121  99.407  49.673  0.00  0.00    -0.259 OA
ATOM      7  O4  non d   1      18.269 101.037  48.134  0.00  0.00    -0.306 OA
ATOM      8  C7  non d   1      17.719 102.282  47.669  0.00  0.00     0.197 C 
ATOM      9  C8  non d   1      18.533 102.746  46.464  0.00  0.00     0.181 C 
ATOM     10  C9  non d   1      18.057 104.123  45.991  0.00  0.00     0.180 C 
ATOM     11  C10 non d   1      18.012 105.112  47.167  0.00  0.00     0.177 C 
ATOM     12  O8  non d   1      17.251 104.581  48.276  0.00  0.00    -0.368 OA
ATOM     13  C12 non d   1      17.790 103.345  48.763  0.00  0.00     0.191 C 
ATOM     14  C13 non d   1      17.019 102.824  49.965  0.00  0.00     0.026 A 
ATOM     15  C14 non d   1      16.281 103.611  50.798  0.00  0.00     0.112 A 
ENDROOT
BRANCH   2  16
ATOM     16  O2  non d   1      14.963 101.132  53.123  0.00  0.00    -0.272 OA
BRANCH  16  17
ATOM     17  C21 non d   1      15.712 100.972  54.256  0.00  0.00     0.298 C 
ATOM     18  O12 non d   1      16.213 101.858  54.937  0.00  0.00    -0.259 OA
BRANCH  17  19
ATOM     19  C16 non d   1      15.887  99.515  54.550  0.00  0.00     0.042 A 
ATOM     20  C15 non d   1      15.269  99.013  55.646  0.00  0.00     0.053 A 
ATOM     21  C20 non d   1      15.405  97.700  55.927  0.00  0.00     0.103 A 
ATOM     22  C19 non d   1      16.135  96.880  55.140  0.00  0.00     0.036 A 
ATOM     23  C18 non d   1      16.743  97.390  54.048  0.00  0.00     0.003 A 
ATOM     24  C17 non d   1      16.618  98.701  53.753  0.00  0.00     0.018 A 
BRANCH  21  25
ATOM     25  N1  non d   1      14.745  97.147  57.115  0.00  0.00    -0.116 N 
ATOM     26  O10 non d   1      14.698  97.851  58.135  0.00  0.00    -0.532 OA
ATOM     27  O11 non d   1      14.272  96.002  57.038  0.00  0.00    -0.532 OA
ENDBRANCH  21  25
ENDBRANCH  17  19
ENDBRANCH  16  17
ENDBRANCH   2  16
BRANCH   1  28
ATOM     28  O1  non d   1      14.838 103.826  52.724  0.00  0.00    -0.351 OA
ATOM     29  C1  non d   1      13.481 103.937  52.291  0.00  0.00     0.210 C 
ENDBRANCH   1  28
BRANCH  15  30
ATOM     30  O9  non d   1      16.179 104.978  50.581  0.00  0.00    -0.357 OA
ATOM     31  H15 non d   1      15.264 105.244  50.370  0.00  0.00     0.217 HD
ENDBRANCH  15  30
BRANCH  11  32
ATOM     32  C11 non d   1      17.359 106.439  46.758  0.00  0.00     0.198 C 
BRANCH  32  33
ATOM     33  O7  non d   1      18.241 107.203  45.935  0.00  0.00    -0.398 OA
ATOM     34  H13 non d   1      17.771 108.028  45.715  0.00  0.00     0.209 HD
ENDBRANCH  32  33
ENDBRANCH  11  32
BRANCH   9  35
ATOM     35  O5  non d   1      18.402 101.817  45.376  0.00  0.00    -0.390 OA
ATOM     36  H7  non d   1      17.555 101.348  45.508  0.00  0.00     0.210 HD
ENDBRANCH   9  35
BRANCH  10  37
ATOM     37  O6  non d   1      18.954 104.590  44.980  0.00  0.00    -0.390 OA
ATOM     38  H9  non d   1      19.845 104.310  45.275  0.00  0.00     0.210 HD
ENDBRANCH  10  37
TORSDOF 10
ENDMDL
MODEL 7
REMARK VINA RESULT:    -8.220      6.636      9.914
REMARK INTER + INTRA:         -12.862
REMARK INTER:                 -11.681
REMARK INTRA:                  -1.181
REMARK UNBOUND:                -0.798
REMARK  10 active torsions:
REMARK  status: ('A' for Active; 'I' for Inactive)
REMARK    1  A    between atoms: O1_2  and  C2_3 
REMARK    2  A    between atoms: C3_4  and  O2_5 
REMARK    3  A    between atoms: C21_33  and  O2_5 
REMARK    4  A    between atoms: C8_12  and  O5_13 
REMARK    5  A    between atoms: C9_14  and  O6_15 
REMARK    6  A    between atoms: C10_16  and  C11_17 
REMARK    7  A    between atoms: C11_17  and  O7_18 
REMARK    8  A    between atoms: C14_22  and  O9_23 
REMARK    9  A    between atoms: C16_25  and  C21_33 
REMARK   10  A    between atoms: C20_29  and  N1_30 
ROOT
ATOM      1  C2  non d   1      17.469 108.869  46.876  0.00  0.00     0.136 A 
ATOM      2  C3  non d   1      17.155 107.626  46.439  0.00  0.00     0.116 A 
ATOM      3  C4  non d   1      16.096 107.440  45.628  0.00  0.00     0.058 A 
ATOM      4  C5  non d   1      15.348 108.492  45.238  0.00  0.00     0.054 A 
ATOM      5  C6  non d   1      14.206 108.204  44.314  0.00  0.00     0.294 C 
ATOM      6  O3  non d   1      14.094 107.147  43.706  0.00  0.00    -0.259 OA
ATOM      7  O4  non d   1      13.286 109.194  44.160  0.00  0.00    -0.306 OA
ATOM      8  C7  non d   1      13.320 110.307  45.071  0.00  0.00     0.197 C 
ATOM      9  C8  non d   1      12.388 111.392  44.537  0.00  0.00     0.181 C 
ATOM     10  C9  non d   1      12.464 112.646  45.414  0.00  0.00     0.180 C 
ATOM     11  C10 non d   1      13.927 113.080  45.607  0.00  0.00     0.177 C 
ATOM     12  O8  non d   1      14.745 111.986  46.081  0.00  0.00    -0.368 OA
ATOM     13  C12 non d   1      14.735 110.870  45.182  0.00  0.00     0.191 C 
ATOM     14  C13 non d   1      15.643 109.748  45.659  0.00  0.00     0.026 A 
ATOM     15  C14 non d   1      16.703 109.929  46.496  0.00  0.00     0.112 A 
ENDROOT
BRANCH   2  16
ATOM     16  O2  non d   1      17.906 106.506  46.855  0.00  0.00    -0.272 OA
BRANCH  16  17
ATOM     17  C21 non d   1      18.682 105.975  45.862  0.00  0.00     0.298 C 
ATOM     18  O12 non d   1      19.562 106.547  45.231  0.00  0.00    -0.259 OA
BRANCH  17  19
ATOM     19  C16 non d   1      18.276 104.559  45.600  0.00  0.00     0.042 A 
ATOM     20  C15 non d   1      18.282 104.126  44.316  0.00  0.00     0.053 A 
ATOM     21  C20 non d   1      17.928 102.850  44.056  0.00  0.00     0.103 A 
ATOM     22  C19 non d   1      17.574 101.999  45.043  0.00  0.00     0.036 A 
ATOM     23  C18 non d   1      17.576 102.438  46.319  0.00  0.00     0.003 A 
ATOM     24  C17 non d   1      17.927 103.712  46.596  0.00  0.00     0.018 A 
BRANCH  21  25
ATOM     25  N1  non d   1      17.925 102.374  42.668  0.00  0.00    -0.116 N 
ATOM     26  O10 non d   1      17.561 103.162  41.783  0.00  0.00    -0.532 OA
ATOM     27  O11 non d   1      18.285 101.206  42.454  0.00  0.00    -0.532 OA
ENDBRANCH  21  25
ENDBRANCH  17  19
ENDBRANCH  16  17
ENDBRANCH   2  16
BRANCH   1  28
ATOM     28  O1  non d   1      18.553 109.001  47.744  0.00  0.00    -0.351 OA
ATOM     29  C1  non d   1      19.747 109.411  47.076  0.00  0.00     0.210 C 
ENDBRANCH   1  28
BRANCH  15  30
ATOM     30  O9  non d   1      17.017 111.189  46.987  0.00  0.00    -0.357 OA
ATOM     31  H15 non d   1      17.516 111.717  46.335  0.00  0.00     0.217 HD
ENDBRANCH  15  30
BRANCH  11  32
ATOM     32  C11 non d   1      14.042 114.215  46.633  0.00  0.00     0.198 C 
BRANCH  32  33
ATOM     33  O7  non d   1      13.816 115.481  46.011  0.00  0.00    -0.398 OA
ATOM     34  H13 non d   1      14.661 115.743  45.601  0.00  0.00     0.209 HD
ENDBRANCH  32  33
ENDBRANCH  11  32
BRANCH   9  35
ATOM     35  O5  non d   1      11.029 110.928  44.518  0.00  0.00    -0.390 OA
ATOM     36  H7  non d   1      10.910 110.374  45.315  0.00  0.00     0.210 HD
ENDBRANCH   9  35
BRANCH  10  37
ATOM     37  O6  non d   1      11.715 113.686  44.782  0.00  0.00    -0.390 OA
ATOM     38  H9  non d   1      12.044 113.720  43.860  0.00  0.00     0.210 HD
ENDBRANCH  10  37
TORSDOF 10
ENDMDL
MODEL 8
REMARK VINA RESULT:    -8.148      3.637      8.468
REMARK INTER + INTRA:         -12.756
REMARK INTER:                 -12.228
REMARK INTRA:                  -0.528
REMARK UNBOUND:                -0.798
REMARK  10 active torsions:
REMARK  status: ('A' for Active; 'I' for Inactive)
REMARK    1  A    between atoms: O1_2  and  C2_3 
REMARK    2  A    between atoms: C3_4  and  O2_5 
REMARK    3  A    between atoms: C21_33  and  O2_5 
REMARK    4  A    between atoms: C8_12  and  O5_13 
REMARK    5  A    between atoms: C9_14  and  O6_15 
REMARK    6  A    between atoms: C10_16  and  C11_17 
REMARK    7  A    between atoms: C11_17  and  O7_18 
REMARK    8  A    between atoms: C14_22  and  O9_23 
REMARK    9  A    between atoms: C16_25  and  C21_33 
REMARK   10  A    between atoms: C20_29  and  N1_30 
ROOT
ATOM      1  C2  non d   1      17.748  98.972  51.139  0.00  0.00     0.136 A 
ATOM      2  C3  non d   1      16.893  98.892  52.187  0.00  0.00     0.116 A 
ATOM      3  C4  non d   1      16.165  99.966  52.550  0.00  0.00     0.058 A 
ATOM      4  C5  non d   1      16.276 101.122  51.867  0.00  0.00     0.054 A 
ATOM      5  C6  non d   1      15.412 102.259  52.317  0.00  0.00     0.294 C 
ATOM      6  O3  non d   1      14.455 102.109  53.066  0.00  0.00    -0.259 OA
ATOM      7  O4  non d   1      15.731 103.491  51.836  0.00  0.00    -0.306 OA
ATOM      8  C7  non d   1      16.994 103.659  51.170  0.00  0.00     0.197 C 
ATOM      9  C8  non d   1      17.002 105.028  50.494  0.00  0.00     0.181 C 
ATOM     10  C9  non d   1      18.285 105.219  49.679  0.00  0.00     0.180 C 
ATOM     11  C10 non d   1      18.508 104.025  48.736  0.00  0.00     0.177 C 
ATOM     12  O8  non d   1      18.451 102.769  49.451  0.00  0.00    -0.368 OA
ATOM     13  C12 non d   1      17.195 102.576  50.113  0.00  0.00     0.191 C 
ATOM     14  C13 non d   1      17.124 101.228  50.812  0.00  0.00     0.026 A 
ATOM     15  C14 non d   1      17.873 100.145  50.461  0.00  0.00     0.112 A 
ENDROOT
BRANCH   2  16
ATOM     16  O2  non d   1      16.779  97.700  52.934  0.00  0.00    -0.272 OA
BRANCH  16  17
ATOM     17  C21 non d   1      17.275  97.807  54.204  0.00  0.00     0.298 C 
ATOM     18  O12 non d   1      18.454  97.836  54.533  0.00  0.00    -0.259 OA
BRANCH  17  19
ATOM     19  C16 non d   1      16.149  97.843  55.190  0.00  0.00     0.042 A 
ATOM     20  C15 non d   1      15.444  98.994  55.303  0.00  0.00     0.053 A 
ATOM     21  C20 non d   1      14.419  99.047  56.179  0.00  0.00     0.103 A 
ATOM     22  C19 non d   1      14.079  97.982  56.936  0.00  0.00     0.036 A 
ATOM     23  C18 non d   1      14.785  96.838  56.812  0.00  0.00     0.003 A 
ATOM     24  C17 non d   1      15.814  96.768  55.941  0.00  0.00     0.018 A 
BRANCH  21  25
ATOM     25  N1  non d   1      13.653 100.292  56.314  0.00  0.00    -0.116 N 
ATOM     26  O10 non d   1      12.746 100.509  55.497  0.00  0.00    -0.532 OA
ATOM     27  O11 non d   1      13.955 101.063  57.238  0.00  0.00    -0.532 OA
ENDBRANCH  21  25
ENDBRANCH  17  19
ENDBRANCH  16  17
ENDBRANCH   2  16
BRANCH   1  28
ATOM     28  O1  non d   1      18.505  97.842  50.828  0.00  0.00    -0.351 OA
ATOM     29  C1  non d   1      19.759  97.814  51.512  0.00  0.00     0.210 C 
ENDBRANCH   1  28
BRANCH  15  30
ATOM     30  O9  non d   1      18.784 100.218  49.416  0.00  0.00    -0.357 OA
ATOM     31  H15 non d   1      18.538  99.626  48.680  0.00  0.00     0.217 HD
ENDBRANCH  15  30
BRANCH  11  32
ATOM     32  C11 non d   1      19.879 104.101  48.052  0.00  0.00     0.198 C 
BRANCH  32  33
ATOM     33  O7  non d   1      19.866 105.072  47.004  0.00  0.00    -0.398 OA
ATOM     34  H13 non d   1      20.759 105.463  46.977  0.00  0.00     0.209 HD
ENDBRANCH  32  33
ENDBRANCH  11  32
BRANCH   9  35
ATOM     35  O5  non d   1      16.920 106.076  51.472  0.00  0.00    -0.390 OA
ATOM     36  H7  non d   1      16.134 106.611  51.245  0.00  0.00     0.210 HD
ENDBRANCH   9  35
BRANCH  10  37
ATOM     37  O6  non d   1      18.170 106.431  48.930  0.00  0.00    -0.390 OA
ATOM     38  H9  non d   1      17.250 106.737  49.072  0.00  0.00     0.210 HD
ENDBRANCH  10  37
TORSDOF 10
ENDMDL
MODEL 9
REMARK VINA RESULT:    -7.891      6.301     10.361
REMARK INTER + INTRA:         -12.379
REMARK INTER:                 -11.353
REMARK INTRA:                  -1.026
REMARK UNBOUND:                -0.798
REMARK  10 active torsions:
REMARK  status: ('A' for Active; 'I' for Inactive)
REMARK    1  A    between atoms: O1_2  and  C2_3 
REMARK    2  A    between atoms: C3_4  and  O2_5 
REMARK    3  A    between atoms: C21_33  and  O2_5 
REMARK    4  A    between atoms: C8_12  and  O5_13 
REMARK    5  A    between atoms: C9_14  and  O6_15 
REMARK    6  A    between atoms: C10_16  and  C11_17 
REMARK    7  A    between atoms: C11_17  and  O7_18 
REMARK    8  A    between atoms: C14_22  and  O9_23 
REMARK    9  A    between atoms: C16_25  and  C21_33 
REMARK   10  A    between atoms: C20_29  and  N1_30 
ROOT
ATOM      1  C2  non d   1      20.810 108.497  46.544  0.00  0.00     0.136 A 
ATOM      2  C3  non d   1      20.375 107.214  46.509  0.00  0.00     0.116 A 
ATOM      3  C4  non d   1      20.976 106.275  47.263  0.00  0.00     0.058 A 
ATOM      4  C5  non d   1      22.007 106.606  48.065  0.00  0.00     0.054 A 
ATOM      5  C6  non d   1      22.602 105.508  48.891  0.00  0.00     0.294 C 
ATOM      6  O3  non d   1      22.041 104.435  49.070  0.00  0.00    -0.259 OA
ATOM      7  O4  non d   1      23.809 105.765  49.462  0.00  0.00    -0.306 OA
ATOM      8  C7  non d   1      24.538 106.927  49.029  0.00  0.00     0.197 C 
ATOM      9  C8  non d   1      25.705 107.146  49.988  0.00  0.00     0.181 C 
ATOM     10  C9  non d   1      26.457 108.434  49.635  0.00  0.00     0.180 C 
ATOM     11  C10 non d   1      25.478 109.614  49.518  0.00  0.00     0.177 C 
ATOM     12  O8  non d   1      24.388 109.310  48.618  0.00  0.00    -0.368 OA
ATOM     13  C12 non d   1      23.640 108.161  49.039  0.00  0.00     0.191 C 
ATOM     14  C13 non d   1      22.462 107.884  48.120  0.00  0.00     0.026 A 
ATOM     15  C14 non d   1      21.864 108.828  47.339  0.00  0.00     0.112 A 
ENDROOT
BRANCH   2  16
ATOM     16  O2  non d   1      19.314 106.838  45.658  0.00  0.00    -0.272 OA
BRANCH  16  17
ATOM     17  C21 non d   1      18.213 106.386  46.332  0.00  0.00     0.298 C 
ATOM     18  O12 non d   1      17.455 107.048  47.030  0.00  0.00    -0.259 OA
BRANCH  17  19
ATOM     19  C16 non d   1      18.066 104.910  46.138  0.00  0.00     0.042 A 
ATOM     20  C15 non d   1      17.798 104.152  47.229  0.00  0.00     0.053 A 
ATOM     21  C20 non d   1      17.653 102.819  47.076  0.00  0.00     0.103 A 
ATOM     22  C19 non d   1      17.763 102.228  45.867  0.00  0.00     0.036 A 
ATOM     23  C18 non d   1      18.025 102.993  44.787  0.00  0.00     0.003 A 
ATOM     24  C17 non d   1      18.175 104.328  44.921  0.00  0.00     0.018 A 
BRANCH  21  25
ATOM     25  N1  non d   1      17.369 101.988  48.253  0.00  0.00    -0.116 N 
ATOM     26  O10 non d   1      16.313 102.194  48.869  0.00  0.00    -0.532 OA
ATOM     27  O11 non d   1      18.202 101.126  48.570  0.00  0.00    -0.532 OA
ENDBRANCH  21  25
ENDBRANCH  17  19
ENDBRANCH  16  17
ENDBRANCH   2  16
BRANCH   1  28
ATOM     28  O1  non d   1      20.177 109.423  45.715  0.00  0.00    -0.351 OA
ATOM     29  C1  non d   1      19.158 110.162  46.392  0.00  0.00     0.210 C 
ENDBRANCH   1  28
BRANCH  15  30
ATOM     30  O9  non d   1      22.320 110.139  47.331  0.00  0.00    -0.357 OA
ATOM     31  H15 non d   1      23.087 110.251  46.738  0.00  0.00     0.217 HD
ENDBRANCH  15  30
BRANCH  11  32
ATOM     32  C11 non d   1      26.178 110.869  48.980  0.00  0.00     0.198 C 
BRANCH  32  33
ATOM     33  O7  non d   1      25.941 111.018  47.579  0.00  0.00    -0.398 OA
ATOM     34  H13 non d   1      25.625 111.931  47.447  0.00  0.00     0.209 HD
ENDBRANCH  32  33
ENDBRANCH  11  32
BRANCH   9  35
ATOM     35  O5  non d   1      26.627 106.046  49.925  0.00  0.00    -0.390 OA
ATOM     36  H7  non d   1      26.886 105.951  48.988  0.00  0.00     0.210 HD
ENDBRANCH   9  35
BRANCH  10  37
ATOM     37  O6  non d   1      27.424 108.688  50.657  0.00  0.00    -0.390 OA
ATOM     38  H9  non d   1      28.256 108.287  50.331  0.00  0.00     0.210 HD
ENDBRANCH  10  37
TORSDOF 10
ENDMDL
