REMARK  4 active torsions:
REMARK  status: ('A' for Active; 'I' for Inactive)
REMARK    1  A    between atoms: C14_2  and  C7_3 
REMARK    2  A    between atoms: C2_5  and  N1_9 
REMARK    3  A    between atoms: N17_12  and  S28_13 
REMARK    4  A    between atoms: S28_13  and  N22_15 
ROOT
HETATM    1  N1  572 A 405     102.314  36.950  33.977  1.00 25.05    -0.331 N 
HETATM    2  C19 572 A 405     102.882  38.311  34.033  1.00 25.55     0.121 C 
HETATM    3  C15 572 A 405     104.083  38.258  34.990  1.00 25.78     0.114 C 
HETATM    4  N17 572 A 405     105.071  37.235  34.477  1.00 27.31    -0.164 NA
HETATM    5  C16 572 A 405     104.377  35.833  34.318  1.00 25.42     0.114 C 
HETATM    6  C18 572 A 405     103.254  35.909  33.459  1.00 26.18     0.121 C 
ENDROOT
BRANCH   1   7
HETATM    7  C2  572 A 405     101.044  36.638  34.377  1.00 23.10     0.143 A 
HETATM    8  N4  572 A 405     100.306  37.701  34.856  1.00 22.60    -0.211 NA
HETATM    9  C7  572 A 405      99.056  37.523  35.287  1.00 20.40     0.174 A 
HETATM   10  N3  572 A 405      98.427  36.318  35.285  1.00 19.48    -0.227 NA
HETATM   11  C6  572 A 405      99.131  35.221  34.808  1.00 23.01     0.103 A 
HETATM   12  C5  572 A 405     100.452  35.302  34.336  1.00 22.55     0.058 A 
BRANCH   9  13
HETATM   13  C14 572 A 405      98.361  38.758  35.789  1.00 18.49     0.247 C 
HETATM   14  O30 572 A 405      97.050  38.464  36.221  1.00 18.72    -0.212 OA
ENDBRANCH   9  13
ENDBRANCH   1   7
BRANCH   4  15
HETATM   15  S28 572 A 405     106.450  37.127  35.503  1.00 25.31     0.286 S 
HETATM   16  O25 572 A 405     107.425  35.957  34.903  1.00 28.13    -0.194 OA
HETATM   17  O12 572 A 405     107.113  38.607  35.598  1.00 29.37    -0.194 OA
BRANCH  15  18
HETATM   18  N22 572 A 405     105.836  36.738  37.100  1.00 28.15    -0.165 NA
HETATM   19  C13 572 A 405     106.045  37.755  38.095  1.00 26.60     0.108 C 
HETATM   20  C11 572 A 405     106.359  35.429  37.538  1.00 27.31     0.108 C 
ENDBRANCH  15  18
ENDBRANCH   4  15
TORSDOF 4
