MODEL 1
REMARK VINA RESULT:    -8.246      0.000      0.000
REMARK INTER + INTRA:         -15.672
REMARK INTER:                 -14.031
REMARK INTRA:                  -1.640
REMARK UNBOUND:                -1.640
REMARK  12 active torsions:
REMARK  status: ('A' for Active; 'I' for Inactive)
REMARK    1  A    between atoms: O3_3  and  C16_16 
REMARK    2  A    between atoms: O3_3  and  C28_28 
REMARK    3  A    between atoms: O4_4  and  C18_18 
REMARK    4  A    between atoms: O4_4  and  C29_29 
REMARK    5  A    between atoms: O5_5  and  C21_21 
REMARK    6  A    between atoms: O5_5  and  C32_32 
REMARK    7  A    between atoms: O6_6  and  C24_24 
REMARK    8  A    between atoms: O6_6  and  C33_33 
REMARK    9  A    between atoms: O8_8  and  C26_26 
REMARK   10  A    between atoms: O9_9  and  C27_27 
REMARK   11  A    between atoms: O9_9  and  C36_36 
REMARK   12  A    between atoms: C19_19  and  C21_21 
ROOT
ATOM      1  O1  RES d   1     102.089  34.594  34.277  0.00  0.00    -0.368 OA
ATOM      2  O2  RES d   1     100.596  36.372  31.447  0.00  0.00    -0.306 OA
ATOM      3  O7  RES d   1      99.054  35.766  29.982  0.00  0.00    -0.259 OA
ATOM      4  C15 RES d   1     101.097  36.156  32.769  0.00  0.00     0.198 C 
ATOM      5  C16 RES d   1     102.199  37.172  33.034  0.00  0.00     0.196 C 
ATOM      6  C17 RES d   1     101.638  34.736  32.939  0.00  0.00     0.191 C 
ATOM      7  C18 RES d   1     102.826  36.910  34.402  0.00  0.00     0.195 C 
ATOM      8  C19 RES d   1     103.212  35.428  34.556  0.00  0.00     0.179 C 
ATOM      9  C20 RES d   1     100.547  33.751  32.601  0.00  0.00     0.026 A 
ATOM     10  C22 RES d   1      99.600  34.157  31.647  0.00  0.00     0.054 A 
ATOM     11  C23 RES d   1      99.694  35.477  30.956  0.00  0.00     0.294 C 
ATOM     12  C24 RES d   1     100.447  32.459  33.114  0.00  0.00     0.125 A 
ATOM     13  C25 RES d   1      98.569  33.310  31.248  0.00  0.00     0.058 A 
ATOM     14  C26 RES d   1      99.406  31.605  32.730  0.00  0.00     0.137 A 
ATOM     15  C27 RES d   1      98.467  32.051  31.800  0.00  0.00     0.116 A 
ENDROOT
BRANCH   8  16
ATOM     16  C21 RES d   1     103.727  35.077  35.935  0.00  0.00     0.213 C 
BRANCH  16  17
ATOM     17  O5  RES d   1     102.623  35.042  36.852  0.00  0.00    -0.319 OA
BRANCH  17  18
ATOM     18  C32 RES d   1     102.609  36.009  37.799  0.00  0.00     0.254 C 
ATOM     19  O12 RES d   1     103.569  36.280  38.476  0.00  0.00    -0.266 OA
ATOM     20  C34 RES d   1     101.263  36.675  37.870  0.00  0.00     0.126 C 
ENDBRANCH  17  18
ENDBRANCH  16  17
ENDBRANCH   8  16
BRANCH   7  21
ATOM     21  O4  RES d   1     104.028  37.693  34.505  0.00  0.00    -0.311 OA
BRANCH  21  22
ATOM     22  C29 RES d   1     104.184  38.513  35.586  0.00  0.00     0.255 C 
ATOM     23  O11 RES d   1     103.347  39.288  35.967  0.00  0.00    -0.266 OA
ATOM     24  C31 RES d   1     105.539  38.304  36.204  0.00  0.00     0.126 C 
ENDBRANCH  21  22
ENDBRANCH   7  21
BRANCH   5  25
ATOM     25  O3  RES d   1     101.618  38.484  33.023  0.00  0.00    -0.311 OA
BRANCH  25  26
ATOM     26  C28 RES d   1     101.863  39.286  31.945  0.00  0.00     0.255 C 
ATOM     27  O10 RES d   1     101.006  39.713  31.220  0.00  0.00    -0.266 OA
ATOM     28  C30 RES d   1     103.340  39.534  31.810  0.00  0.00     0.126 C 
ENDBRANCH  25  26
ENDBRANCH   5  25
BRANCH  12  29
ATOM     29  O6  RES d   1     101.310  31.943  34.071  0.00  0.00    -0.276 OA
BRANCH  29  30
ATOM     30  C33 RES d   1     102.455  31.308  33.660  0.00  0.00     0.260 C 
ATOM     31  O13 RES d   1     103.047  31.594  32.657  0.00  0.00    -0.265 OA
ATOM     32  C37 RES d   1     102.879  30.291  34.681  0.00  0.00     0.126 C 
ENDBRANCH  29  30
ENDBRANCH  12  29
BRANCH  14  33
ATOM     33  O8  RES d   1      99.344  30.332  33.209  0.00  0.00    -0.351 OA
ATOM     34  C35 RES d   1      99.820  29.320  32.306  0.00  0.00     0.210 C 
ENDBRANCH  14  33
BRANCH  15  35
ATOM     35  O9  RES d   1      97.401  31.225  31.469  0.00  0.00    -0.276 OA
BRANCH  35  36
ATOM     36  C36 RES d   1      96.347  31.170  32.361  0.00  0.00     0.260 C 
ATOM     37  O14 RES d   1      96.065  32.069  33.095  0.00  0.00    -0.265 OA
ATOM     38  C38 RES d   1      95.658  29.838  32.263  0.00  0.00     0.126 C 
ENDBRANCH  35  36
ENDBRANCH  15  35
TORSDOF 12
ENDMDL
MODEL 2
REMARK VINA RESULT:    -8.166      0.810      1.062
REMARK INTER + INTRA:         -15.536
REMARK INTER:                 -13.663
REMARK INTRA:                  -1.872
REMARK UNBOUND:                -1.640
REMARK  12 active torsions:
REMARK  status: ('A' for Active; 'I' for Inactive)
REMARK    1  A    between atoms: O3_3  and  C16_16 
REMARK    2  A    between atoms: O3_3  and  C28_28 
REMARK    3  A    between atoms: O4_4  and  C18_18 
REMARK    4  A    between atoms: O4_4  and  C29_29 
REMARK    5  A    between atoms: O5_5  and  C21_21 
REMARK    6  A    between atoms: O5_5  and  C32_32 
REMARK    7  A    between atoms: O6_6  and  C24_24 
REMARK    8  A    between atoms: O6_6  and  C33_33 
REMARK    9  A    between atoms: O8_8  and  C26_26 
REMARK   10  A    between atoms: O9_9  and  C27_27 
REMARK   11  A    between atoms: O9_9  and  C36_36 
REMARK   12  A    between atoms: C19_19  and  C21_21 
ROOT
ATOM      1  O1  RES d   1     102.190  34.617  34.273  0.00  0.00    -0.368 OA
ATOM      2  O2  RES d   1     100.826  36.435  31.403  0.00  0.00    -0.306 OA
ATOM      3  O7  RES d   1      99.344  35.854  29.867  0.00  0.00    -0.259 OA
ATOM      4  C15 RES d   1     101.269  36.201  32.743  0.00  0.00     0.198 C 
ATOM      5  C16 RES d   1     102.363  37.209  33.066  0.00  0.00     0.196 C 
ATOM      6  C17 RES d   1     101.796  34.777  32.919  0.00  0.00     0.191 C 
ATOM      7  C18 RES d   1     102.932  36.928  34.456  0.00  0.00     0.195 C 
ATOM      8  C19 RES d   1     103.304  35.442  34.608  0.00  0.00     0.179 C 
ATOM      9  C20 RES d   1     100.716  33.802  32.523  0.00  0.00     0.026 A 
ATOM     10  C22 RES d   1      99.812  34.223  31.535  0.00  0.00     0.054 A 
ATOM     11  C23 RES d   1      99.941  35.551  30.864  0.00  0.00     0.294 C 
ATOM     12  C24 RES d   1     100.589  32.504  33.017  0.00  0.00     0.125 A 
ATOM     13  C25 RES d   1      98.795  33.385  31.083  0.00  0.00     0.058 A 
ATOM     14  C26 RES d   1      99.561  31.660  32.579  0.00  0.00     0.137 A 
ATOM     15  C27 RES d   1      98.664  32.122  31.615  0.00  0.00     0.116 A 
ENDROOT
BRANCH   8  16
ATOM     16  C21 RES d   1     103.758  35.073  36.004  0.00  0.00     0.213 C 
BRANCH  16  17
ATOM     17  O5  RES d   1     102.620  35.058  36.879  0.00  0.00    -0.319 OA
BRANCH  17  18
ATOM     18  C32 RES d   1     102.608  36.000  37.851  0.00  0.00     0.254 C 
ATOM     19  O12 RES d   1     103.560  36.231  38.553  0.00  0.00    -0.266 OA
ATOM     20  C34 RES d   1     101.276  36.693  37.913  0.00  0.00     0.126 C 
ENDBRANCH  17  18
ENDBRANCH  16  17
ENDBRANCH   8  16
BRANCH   7  21
ATOM     21  O4  RES d   1     104.131  37.704  34.619  0.00  0.00    -0.311 OA
BRANCH  21  22
ATOM     22  C29 RES d   1     104.220  38.556  35.683  0.00  0.00     0.255 C 
ATOM     23  O11 RES d   1     103.358  39.332  35.995  0.00  0.00    -0.266 OA
ATOM     24  C31 RES d   1     105.541  38.377  36.381  0.00  0.00     0.126 C 
ENDBRANCH  21  22
ENDBRANCH   7  21
BRANCH   5  25
ATOM     25  O3  RES d   1     101.789  38.524  33.045  0.00  0.00    -0.311 OA
BRANCH  25  26
ATOM     26  C28 RES d   1     102.064  39.328  31.977  0.00  0.00     0.255 C 
ATOM     27  O10 RES d   1     101.226  39.774  31.242  0.00  0.00    -0.266 OA
ATOM     28  C30 RES d   1     103.547  39.552  31.865  0.00  0.00     0.126 C 
ENDBRANCH  25  26
ENDBRANCH   5  25
BRANCH  12  29
ATOM     29  O6  RES d   1     101.408  31.973  34.003  0.00  0.00    -0.276 OA
BRANCH  29  30
ATOM     30  C33 RES d   1     102.561  31.327  33.632  0.00  0.00     0.260 C 
ATOM     31  O13 RES d   1     103.177  31.591  32.638  0.00  0.00    -0.265 OA
ATOM     32  C37 RES d   1     102.959  30.331  34.685  0.00  0.00     0.126 C 
ENDBRANCH  29  30
ENDBRANCH  12  29
BRANCH  14  33
ATOM     33  O8  RES d   1      99.473  30.382  33.039  0.00  0.00    -0.351 OA
ATOM     34  C35 RES d   1     100.058  29.386  32.183  0.00  0.00     0.210 C 
ENDBRANCH  14  33
BRANCH  15  35
ATOM     35  O9  RES d   1      97.610  31.304  31.230  0.00  0.00    -0.276 OA
BRANCH  35  36
ATOM     36  C36 RES d   1      97.512  30.992  29.887  0.00  0.00     0.260 C 
ATOM     37  O14 RES d   1      98.374  30.423  29.285  0.00  0.00    -0.265 OA
ATOM     38  C38 RES d   1      96.203  31.482  29.338  0.00  0.00     0.126 C 
ENDBRANCH  35  36
ENDBRANCH  15  35
TORSDOF 12
ENDMDL
MODEL 3
REMARK VINA RESULT:    -7.615      2.170      2.999
REMARK INTER + INTRA:         -14.598
REMARK INTER:                 -12.946
REMARK INTRA:                  -1.651
REMARK UNBOUND:                -1.640
REMARK  12 active torsions:
REMARK  status: ('A' for Active; 'I' for Inactive)
REMARK    1  A    between atoms: O3_3  and  C16_16 
REMARK    2  A    between atoms: O3_3  and  C28_28 
REMARK    3  A    between atoms: O4_4  and  C18_18 
REMARK    4  A    between atoms: O4_4  and  C29_29 
REMARK    5  A    between atoms: O5_5  and  C21_21 
REMARK    6  A    between atoms: O5_5  and  C32_32 
REMARK    7  A    between atoms: O6_6  and  C24_24 
REMARK    8  A    between atoms: O6_6  and  C33_33 
REMARK    9  A    between atoms: O8_8  and  C26_26 
REMARK   10  A    between atoms: O9_9  and  C27_27 
REMARK   11  A    between atoms: O9_9  and  C36_36 
REMARK   12  A    between atoms: C19_19  and  C21_21 
ROOT
ATOM      1  O1  RES d   1     101.635  34.192  33.815  0.00  0.00    -0.368 OA
ATOM      2  O2  RES d   1      98.072  34.641  33.107  0.00  0.00    -0.306 OA
ATOM      3  O7  RES d   1      96.566  33.276  32.236  0.00  0.00    -0.259 OA
ATOM      4  C15 RES d   1      99.305  34.708  33.829  0.00  0.00     0.198 C 
ATOM      5  C16 RES d   1      99.590  36.168  34.152  0.00  0.00     0.196 C 
ATOM      6  C17 RES d   1     100.460  34.111  33.024  0.00  0.00     0.191 C 
ATOM      7  C18 RES d   1     100.949  36.291  34.838  0.00  0.00     0.195 C 
ATOM      8  C19 RES d   1     102.035  35.541  34.046  0.00  0.00     0.179 C 
ATOM      9  C20 RES d   1     100.119  32.689  32.657  0.00  0.00     0.026 A 
ATOM     10  C22 RES d   1      98.759  32.387  32.483  0.00  0.00     0.054 A 
ATOM     11  C23 RES d   1      97.699  33.433  32.600  0.00  0.00     0.294 C 
ATOM     12  C24 RES d   1     101.049  31.678  32.420  0.00  0.00     0.125 A 
ATOM     13  C25 RES d   1      98.344  31.109  32.118  0.00  0.00     0.058 A 
ATOM     14  C26 RES d   1     100.641  30.386  32.067  0.00  0.00     0.137 A 
ATOM     15  C27 RES d   1      99.279  30.115  31.929  0.00  0.00     0.116 A 
ENDROOT
BRANCH   8  16
ATOM     16  C21 RES d   1     103.382  35.521  34.737  0.00  0.00     0.213 C 
BRANCH  16  17
ATOM     17  O5  RES d   1     103.323  34.618  35.851  0.00  0.00    -0.319 OA
BRANCH  17  18
ATOM     18  C32 RES d   1     103.546  35.165  37.069  0.00  0.00     0.254 C 
ATOM     19  O12 RES d   1     102.754  35.095  37.975  0.00  0.00    -0.266 OA
ATOM     20  C34 RES d   1     104.886  35.845  37.118  0.00  0.00     0.126 C 
ENDBRANCH  17  18
ENDBRANCH  16  17
ENDBRANCH   8  16
BRANCH   7  21
ATOM     21  O4  RES d   1     101.311  37.682  34.878  0.00  0.00    -0.311 OA
BRANCH  21  22
ATOM     22  C29 RES d   1     101.842  38.187  36.031  0.00  0.00     0.255 C 
ATOM     23  O11 RES d   1     102.912  38.731  36.094  0.00  0.00    -0.266 OA
ATOM     24  C31 RES d   1     100.902  37.952  37.181  0.00  0.00     0.126 C 
ENDBRANCH  21  22
ENDBRANCH   7  21
BRANCH   5  25
ATOM     25  O3  RES d   1      98.567  36.644  35.038  0.00  0.00    -0.311 OA
BRANCH  25  26
ATOM     26  C28 RES d   1      97.682  37.568  34.561  0.00  0.00     0.255 C 
ATOM     27  O10 RES d   1      96.583  37.296  34.158  0.00  0.00    -0.266 OA
ATOM     28  C30 RES d   1      98.291  38.941  34.609  0.00  0.00     0.126 C 
ENDBRANCH  25  26
ENDBRANCH   5  25
BRANCH  12  29
ATOM     29  O6  RES d   1     102.419  31.843  32.571  0.00  0.00    -0.276 OA
BRANCH  29  30
ATOM     30  C33 RES d   1     103.026  31.354  33.700  0.00  0.00     0.260 C 
ATOM     31  O13 RES d   1     102.485  31.293  34.769  0.00  0.00    -0.265 OA
ATOM     32  C37 RES d   1     104.399  30.842  33.370  0.00  0.00     0.126 C 
ENDBRANCH  29  30
ENDBRANCH  12  29
BRANCH  14  33
ATOM     33  O8  RES d   1     101.562  29.420  31.799  0.00  0.00    -0.351 OA
ATOM     34  C35 RES d   1     101.974  29.338  30.425  0.00  0.00     0.210 C 
ENDBRANCH  14  33
BRANCH  15  35
ATOM     35  O9  RES d   1      98.877  28.818  31.641  0.00  0.00    -0.276 OA
BRANCH  35  36
ATOM     36  C36 RES d   1      98.445  28.042  32.700  0.00  0.00     0.260 C 
ATOM     37  O14 RES d   1      99.154  27.726  33.609  0.00  0.00    -0.265 OA
ATOM     38  C38 RES d   1      97.003  27.668  32.511  0.00  0.00     0.126 C 
ENDBRANCH  35  36
ENDBRANCH  15  35
TORSDOF 12
ENDMDL
MODEL 4
REMARK VINA RESULT:    -7.576      2.294      2.862
REMARK INTER + INTRA:         -14.531
REMARK INTER:                 -13.192
REMARK INTRA:                  -1.339
REMARK UNBOUND:                -1.640
REMARK  12 active torsions:
REMARK  status: ('A' for Active; 'I' for Inactive)
REMARK    1  A    between atoms: O3_3  and  C16_16 
REMARK    2  A    between atoms: O3_3  and  C28_28 
REMARK    3  A    between atoms: O4_4  and  C18_18 
REMARK    4  A    between atoms: O4_4  and  C29_29 
REMARK    5  A    between atoms: O5_5  and  C21_21 
REMARK    6  A    between atoms: O5_5  and  C32_32 
REMARK    7  A    between atoms: O6_6  and  C24_24 
REMARK    8  A    between atoms: O6_6  and  C33_33 
REMARK    9  A    between atoms: O8_8  and  C26_26 
REMARK   10  A    between atoms: O9_9  and  C27_27 
REMARK   11  A    between atoms: O9_9  and  C36_36 
REMARK   12  A    between atoms: C19_19  and  C21_21 
ROOT
ATOM      1  O1  RES d   1     102.165  34.445  34.138  0.00  0.00    -0.368 OA
ATOM      2  O2  RES d   1      99.945  35.932  31.635  0.00  0.00    -0.306 OA
ATOM      3  O7  RES d   1      99.201  35.170  29.697  0.00  0.00    -0.259 OA
ATOM      4  C15 RES d   1     100.434  35.554  32.925  0.00  0.00     0.198 C 
ATOM      5  C16 RES d   1     100.606  36.817  33.758  0.00  0.00     0.196 C 
ATOM      6  C17 RES d   1     101.762  34.805  32.825  0.00  0.00     0.191 C 
ATOM      7  C18 RES d   1     101.220  36.465  35.112  0.00  0.00     0.195 C 
ATOM      8  C19 RES d   1     102.471  35.587  34.936  0.00  0.00     0.179 C 
ATOM      9  C20 RES d   1     101.580  33.599  31.938  0.00  0.00     0.026 A 
ATOM     10  C22 RES d   1     100.619  33.702  30.919  0.00  0.00     0.054 A 
ATOM     11  C23 RES d   1      99.851  34.960  30.684  0.00  0.00     0.294 C 
ATOM     12  C24 RES d   1     102.330  32.427  32.015  0.00  0.00     0.125 A 
ATOM     13  C25 RES d   1     100.395  32.653  30.030  0.00  0.00     0.058 A 
ATOM     14  C26 RES d   1     102.102  31.361  31.136  0.00  0.00     0.137 A 
ATOM     15  C27 RES d   1     101.121  31.488  30.152  0.00  0.00     0.116 A 
ENDROOT
BRANCH   8  16
ATOM     16  C21 RES d   1     103.056  35.101  36.245  0.00  0.00     0.213 C 
BRANCH  16  17
ATOM     17  O5  RES d   1     104.341  35.710  36.438  0.00  0.00    -0.319 OA
BRANCH  17  18
ATOM     18  C32 RES d   1     104.503  36.397  37.594  0.00  0.00     0.254 C 
ATOM     19  O12 RES d   1     103.807  36.224  38.563  0.00  0.00    -0.266 OA
ATOM     20  C34 RES d   1     105.645  37.369  37.488  0.00  0.00     0.126 C 
ENDBRANCH  17  18
ENDBRANCH  16  17
ENDBRANCH   8  16
BRANCH   7  21
ATOM     21  O4  RES d   1     101.623  37.686  35.756  0.00  0.00    -0.311 OA
BRANCH  21  22
ATOM     22  C29 RES d   1     101.202  37.922  37.034  0.00  0.00     0.255 C 
ATOM     23  O11 RES d   1     101.784  38.627  37.813  0.00  0.00    -0.266 OA
ATOM     24  C31 RES d   1      99.928  37.170  37.307  0.00  0.00     0.126 C 
ENDBRANCH  21  22
ENDBRANCH   7  21
BRANCH   5  25
ATOM     25  O3  RES d   1      99.313  37.405  33.962  0.00  0.00    -0.311 OA
BRANCH  25  26
ATOM     26  C28 RES d   1      99.130  38.704  33.581  0.00  0.00     0.255 C 
ATOM     27  O10 RES d   1      99.608  39.183  32.589  0.00  0.00    -0.266 OA
ATOM     28  C30 RES d   1      98.265  39.420  34.581  0.00  0.00     0.126 C 
ENDBRANCH  25  26
ENDBRANCH   5  25
BRANCH  12  29
ATOM     29  O6  RES d   1     103.298  32.196  32.983  0.00  0.00    -0.276 OA
BRANCH  29  30
ATOM     30  C33 RES d   1     102.985  31.401  34.057  0.00  0.00     0.260 C 
ATOM     31  O13 RES d   1     101.914  31.408  34.597  0.00  0.00    -0.265 OA
ATOM     32  C37 RES d   1     104.133  30.487  34.377  0.00  0.00     0.126 C 
ENDBRANCH  29  30
ENDBRANCH  12  29
BRANCH  14  33
ATOM     33  O8  RES d   1     102.869  30.239  31.197  0.00  0.00    -0.351 OA
ATOM     34  C35 RES d   1     102.197  29.070  31.693  0.00  0.00     0.210 C 
ENDBRANCH  14  33
BRANCH  15  35
ATOM     35  O9  RES d   1     100.855  30.406  29.323  0.00  0.00    -0.276 OA
BRANCH  35  36
ATOM     36  C36 RES d   1      99.559  29.926  29.310  0.00  0.00     0.260 C 
ATOM     37  O14 RES d   1      98.985  29.569  30.295  0.00  0.00    -0.265 OA
ATOM     38  C38 RES d   1      99.027  29.916  27.905  0.00  0.00     0.126 C 
ENDBRANCH  35  36
ENDBRANCH  15  35
TORSDOF 12
ENDMDL
MODEL 5
REMARK VINA RESULT:    -7.460      4.010      7.460
REMARK INTER + INTRA:         -14.334
REMARK INTER:                 -13.081
REMARK INTRA:                  -1.252
REMARK UNBOUND:                -1.640
REMARK  12 active torsions:
REMARK  status: ('A' for Active; 'I' for Inactive)
REMARK    1  A    between atoms: O3_3  and  C16_16 
REMARK    2  A    between atoms: O3_3  and  C28_28 
REMARK    3  A    between atoms: O4_4  and  C18_18 
REMARK    4  A    between atoms: O4_4  and  C29_29 
REMARK    5  A    between atoms: O5_5  and  C21_21 
REMARK    6  A    between atoms: O5_5  and  C32_32 
REMARK    7  A    between atoms: O6_6  and  C24_24 
REMARK    8  A    between atoms: O6_6  and  C33_33 
REMARK    9  A    between atoms: O8_8  and  C26_26 
REMARK   10  A    between atoms: O9_9  and  C27_27 
REMARK   11  A    between atoms: O9_9  and  C36_36 
REMARK   12  A    between atoms: C19_19  and  C21_21 
ROOT
ATOM      1  O1  RES d   1     103.705  36.856  35.082  0.00  0.00    -0.368 OA
ATOM      2  O2  RES d   1     101.670  38.611  32.596  0.00  0.00    -0.306 OA
ATOM      3  O7  RES d   1     102.228  39.783  30.806  0.00  0.00    -0.259 OA
ATOM      4  C15 RES d   1     102.083  37.565  33.480  0.00  0.00     0.198 C 
ATOM      5  C16 RES d   1     100.944  37.282  34.449  0.00  0.00     0.196 C 
ATOM      6  C17 RES d   1     103.347  37.950  34.251  0.00  0.00     0.191 C 
ATOM      7  C18 RES d   1     101.384  36.237  35.474  0.00  0.00     0.195 C 
ATOM      8  C19 RES d   1     102.736  36.618  36.102  0.00  0.00     0.179 C 
ATOM      9  C20 RES d   1     104.436  38.294  33.267  0.00  0.00     0.026 A 
ATOM     10  C22 RES d   1     104.031  38.837  32.037  0.00  0.00     0.054 A 
ATOM     11  C23 RES d   1     102.596  39.115  31.733  0.00  0.00     0.294 C 
ATOM     12  C24 RES d   1     105.803  38.172  33.511  0.00  0.00     0.125 A 
ATOM     13  C25 RES d   1     104.963  39.213  31.072  0.00  0.00     0.058 A 
ATOM     14  C26 RES d   1     106.747  38.533  32.541  0.00  0.00     0.137 A 
ATOM     15  C27 RES d   1     106.307  39.045  31.319  0.00  0.00     0.116 A 
ENDROOT
BRANCH   8  16
ATOM     16  C21 RES d   1     103.287  35.562  37.036  0.00  0.00     0.213 C 
BRANCH  16  17
ATOM     17  O5  RES d   1     103.915  36.207  38.154  0.00  0.00    -0.319 OA
BRANCH  17  18
ATOM     18  C32 RES d   1     105.255  36.372  38.066  0.00  0.00     0.254 C 
ATOM     19  O12 RES d   1     106.028  35.449  38.012  0.00  0.00    -0.266 OA
ATOM     20  C34 RES d   1     105.619  37.831  38.040  0.00  0.00     0.126 C 
ENDBRANCH  17  18
ENDBRANCH  16  17
ENDBRANCH   8  16
BRANCH   7  21
ATOM     21  O4  RES d   1     100.404  36.195  36.525  0.00  0.00    -0.311 OA
BRANCH  21  22
ATOM     22  C29 RES d   1     100.340  37.240  37.403  0.00  0.00     0.255 C 
ATOM     23  O11 RES d   1     100.274  38.393  37.070  0.00  0.00    -0.266 OA
ATOM     24  C31 RES d   1     100.373  36.731  38.818  0.00  0.00     0.126 C 
ENDBRANCH  21  22
ENDBRANCH   7  21
BRANCH   5  25
ATOM     25  O3  RES d   1      99.830  36.773  33.702  0.00  0.00    -0.311 OA
BRANCH  25  26
ATOM     26  C28 RES d   1      98.728  37.569  33.570  0.00  0.00     0.255 C 
ATOM     27  O10 RES d   1      98.307  38.279  34.442  0.00  0.00    -0.266 OA
ATOM     28  C30 RES d   1      98.137  37.411  32.196  0.00  0.00     0.126 C 
ENDBRANCH  25  26
ENDBRANCH   5  25
BRANCH  12  29
ATOM     29  O6  RES d   1     106.332  37.638  34.677  0.00  0.00    -0.276 OA
BRANCH  29  30
ATOM     30  C33 RES d   1     106.798  36.347  34.664  0.00  0.00     0.260 C 
ATOM     31  O13 RES d   1     106.212  35.436  34.150  0.00  0.00    -0.265 OA
ATOM     32  C37 RES d   1     108.158  36.282  35.299  0.00  0.00     0.126 C 
ENDBRANCH  29  30
ENDBRANCH  12  29
BRANCH  14  33
ATOM     33  O8  RES d   1     108.079  38.447  32.807  0.00  0.00    -0.351 OA
ATOM     34  C35 RES d   1     108.676  39.651  33.316  0.00  0.00     0.210 C 
ENDBRANCH  14  33
BRANCH  15  35
ATOM     35  O9  RES d   1     107.244  39.342  30.338  0.00  0.00    -0.276 OA
BRANCH  35  36
ATOM     36  C36 RES d   1     107.282  40.645  29.878  0.00  0.00     0.260 C 
ATOM     37  O14 RES d   1     107.446  41.586  30.596  0.00  0.00    -0.265 OA
ATOM     38  C38 RES d   1     107.077  40.673  28.390  0.00  0.00     0.126 C 
ENDBRANCH  35  36
ENDBRANCH  15  35
TORSDOF 12
ENDMDL
MODEL 6
REMARK VINA RESULT:    -7.415      1.996      2.862
REMARK INTER + INTRA:         -14.258
REMARK INTER:                 -12.317
REMARK INTRA:                  -1.941
REMARK UNBOUND:                -1.640
REMARK  12 active torsions:
REMARK  status: ('A' for Active; 'I' for Inactive)
REMARK    1  A    between atoms: O3_3  and  C16_16 
REMARK    2  A    between atoms: O3_3  and  C28_28 
REMARK    3  A    between atoms: O4_4  and  C18_18 
REMARK    4  A    between atoms: O4_4  and  C29_29 
REMARK    5  A    between atoms: O5_5  and  C21_21 
REMARK    6  A    between atoms: O5_5  and  C32_32 
REMARK    7  A    between atoms: O6_6  and  C24_24 
REMARK    8  A    between atoms: O6_6  and  C33_33 
REMARK    9  A    between atoms: O8_8  and  C26_26 
REMARK   10  A    between atoms: O9_9  and  C27_27 
REMARK   11  A    between atoms: O9_9  and  C36_36 
REMARK   12  A    between atoms: C19_19  and  C21_21 
ROOT
ATOM      1  O1  RES d   1     101.716  33.741  33.781  0.00  0.00    -0.368 OA
ATOM      2  O2  RES d   1      98.219  34.339  32.879  0.00  0.00    -0.306 OA
ATOM      3  O7  RES d   1      96.607  32.958  32.258  0.00  0.00    -0.259 OA
ATOM      4  C15 RES d   1      99.443  34.448  33.611  0.00  0.00     0.198 C 
ATOM      5  C16 RES d   1      99.856  35.913  33.635  0.00  0.00     0.196 C 
ATOM      6  C17 RES d   1     100.550  33.599  32.985  0.00  0.00     0.191 C 
ATOM      7  C18 RES d   1     101.211  36.058  34.326  0.00  0.00     0.195 C 
ATOM      8  C19 RES d   1     102.235  35.069  33.741  0.00  0.00     0.179 C 
ATOM      9  C20 RES d   1     100.085  32.167  32.909  0.00  0.00     0.026 A 
ATOM     10  C22 RES d   1      98.706  31.954  32.757  0.00  0.00     0.054 A 
ATOM     11  C23 RES d   1      97.745  33.089  32.620  0.00  0.00     0.294 C 
ATOM     12  C24 RES d   1     100.923  31.052  32.917  0.00  0.00     0.125 A 
ATOM     13  C25 RES d   1      98.181  30.669  32.650  0.00  0.00     0.058 A 
ATOM     14  C26 RES d   1     100.403  29.755  32.825  0.00  0.00     0.137 A 
ATOM     15  C27 RES d   1      99.024  29.580  32.701  0.00  0.00     0.116 A 
ENDROOT
BRANCH   8  16
ATOM     16  C21 RES d   1     103.564  35.077  34.466  0.00  0.00     0.213 C 
BRANCH  16  17
ATOM     17  O5  RES d   1     103.407  34.434  35.740  0.00  0.00    -0.319 OA
BRANCH  17  18
ATOM     18  C32 RES d   1     103.522  35.236  36.825  0.00  0.00     0.254 C 
ATOM     19  O12 RES d   1     102.658  35.341  37.659  0.00  0.00    -0.266 OA
ATOM     20  C34 RES d   1     104.848  35.945  36.833  0.00  0.00     0.126 C 
ENDBRANCH  17  18
ENDBRANCH  16  17
ENDBRANCH   8  16
BRANCH   7  21
ATOM     21  O4  RES d   1     101.698  37.391  34.090  0.00  0.00    -0.311 OA
BRANCH  21  22
ATOM     22  C29 RES d   1     102.072  38.150  35.161  0.00  0.00     0.255 C 
ATOM     23  O11 RES d   1     101.468  38.189  36.199  0.00  0.00    -0.266 OA
ATOM     24  C31 RES d   1     103.326  38.917  34.841  0.00  0.00     0.126 C 
ENDBRANCH  21  22
ENDBRANCH   7  21
BRANCH   5  25
ATOM     25  O3  RES d   1      98.868  36.651  34.369  0.00  0.00    -0.311 OA
BRANCH  25  26
ATOM     26  C28 RES d   1      98.249  37.694  33.743  0.00  0.00     0.255 C 
ATOM     27  O10 RES d   1      97.711  37.608  32.672  0.00  0.00    -0.266 OA
ATOM     28  C30 RES d   1      98.352  38.937  34.582  0.00  0.00     0.126 C 
ENDBRANCH  25  26
ENDBRANCH   5  25
BRANCH  12  29
ATOM     29  O6  RES d   1     102.300  31.126  33.076  0.00  0.00    -0.276 OA
BRANCH  29  30
ATOM     30  C33 RES d   1     102.851  30.744  34.273  0.00  0.00     0.260 C 
ATOM     31  O13 RES d   1     102.270  30.811  35.321  0.00  0.00    -0.265 OA
ATOM     32  C37 RES d   1     104.219  30.165  34.053  0.00  0.00     0.126 C 
ENDBRANCH  29  30
ENDBRANCH  12  29
BRANCH  14  33
ATOM     33  O8  RES d   1     101.235  28.678  32.793  0.00  0.00    -0.351 OA
ATOM     34  C35 RES d   1     101.694  28.304  31.484  0.00  0.00     0.210 C 
ENDBRANCH  14  33
BRANCH  15  35
ATOM     35  O9  RES d   1      98.509  28.292  32.673  0.00  0.00    -0.276 OA
BRANCH  35  36
ATOM     36  C36 RES d   1      97.791  27.923  31.551  0.00  0.00     0.260 C 
ATOM     37  O14 RES d   1      98.246  27.955  30.446  0.00  0.00    -0.265 OA
ATOM     38  C38 RES d   1      96.401  27.511  31.940  0.00  0.00     0.126 C 
ENDBRANCH  35  36
ENDBRANCH  15  35
TORSDOF 12
ENDMDL
MODEL 7
REMARK VINA RESULT:    -7.331      2.454      5.312
REMARK INTER + INTRA:         -14.114
REMARK INTER:                 -12.202
REMARK INTRA:                  -1.912
REMARK UNBOUND:                -1.640
REMARK  12 active torsions:
REMARK  status: ('A' for Active; 'I' for Inactive)
REMARK    1  A    between atoms: O3_3  and  C16_16 
REMARK    2  A    between atoms: O3_3  and  C28_28 
REMARK    3  A    between atoms: O4_4  and  C18_18 
REMARK    4  A    between atoms: O4_4  and  C29_29 
REMARK    5  A    between atoms: O5_5  and  C21_21 
REMARK    6  A    between atoms: O5_5  and  C32_32 
REMARK    7  A    between atoms: O6_6  and  C24_24 
REMARK    8  A    between atoms: O6_6  and  C33_33 
REMARK    9  A    between atoms: O8_8  and  C26_26 
REMARK   10  A    between atoms: O9_9  and  C27_27 
REMARK   11  A    between atoms: O9_9  and  C36_36 
REMARK   12  A    between atoms: C19_19  and  C21_21 
ROOT
ATOM      1  O1  RES d   1     101.713  35.173  32.056  0.00  0.00    -0.368 OA
ATOM      2  O2  RES d   1     103.087  32.859  34.537  0.00  0.00    -0.306 OA
ATOM      3  O7  RES d   1     103.572  30.704  34.423  0.00  0.00    -0.259 OA
ATOM      4  C15 RES d   1     102.937  34.062  33.777  0.00  0.00     0.198 C 
ATOM      5  C16 RES d   1     102.696  35.211  34.746  0.00  0.00     0.196 C 
ATOM      6  C17 RES d   1     101.779  33.957  32.784  0.00  0.00     0.191 C 
ATOM      7  C18 RES d   1     102.433  36.498  33.966  0.00  0.00     0.195 C 
ATOM      8  C19 RES d   1     101.359  36.278  32.886  0.00  0.00     0.179 C 
ATOM      9  C20 RES d   1     102.010  32.769  31.885  0.00  0.00     0.026 A 
ATOM     10  C22 RES d   1     102.718  31.687  32.432  0.00  0.00     0.054 A 
ATOM     11  C23 RES d   1     103.176  31.684  33.853  0.00  0.00     0.294 C 
ATOM     12  C24 RES d   1     101.522  32.642  30.585  0.00  0.00     0.125 A 
ATOM     13  C25 RES d   1     102.959  30.533  31.690  0.00  0.00     0.058 A 
ATOM     14  C26 RES d   1     101.772  31.492  29.826  0.00  0.00     0.137 A 
ATOM     15  C27 RES d   1     102.502  30.447  30.394  0.00  0.00     0.116 A 
ENDROOT
BRANCH   8  16
ATOM     16  C21 RES d   1     101.140  37.483  31.997  0.00  0.00     0.213 C 
BRANCH  16  17
ATOM     17  O5  RES d   1      99.854  38.051  32.285  0.00  0.00    -0.319 OA
BRANCH  17  18
ATOM     18  C32 RES d   1      98.785  37.359  31.825  0.00  0.00     0.254 C 
ATOM     19  O12 RES d   1      98.688  36.984  30.684  0.00  0.00    -0.266 OA
ATOM     20  C34 RES d   1      97.777  37.133  32.917  0.00  0.00     0.126 C 
ENDBRANCH  17  18
ENDBRANCH  16  17
ENDBRANCH   8  16
BRANCH   7  21
ATOM     21  O4  RES d   1     101.940  37.490  34.884  0.00  0.00    -0.311 OA
BRANCH  21  22
ATOM     22  C29 RES d   1     102.791  38.471  35.306  0.00  0.00     0.255 C 
ATOM     23  O11 RES d   1     102.840  38.876  36.437  0.00  0.00    -0.266 OA
ATOM     24  C31 RES d   1     103.631  38.958  34.159  0.00  0.00     0.126 C 
ENDBRANCH  21  22
ENDBRANCH   7  21
BRANCH   5  25
ATOM     25  O3  RES d   1     103.870  35.377  35.553  0.00  0.00    -0.311 OA
BRANCH  25  26
ATOM     26  C28 RES d   1     103.710  35.476  36.906  0.00  0.00     0.255 C 
ATOM     27  O10 RES d   1     102.721  35.127  37.490  0.00  0.00    -0.266 OA
ATOM     28  C30 RES d   1     104.935  36.085  37.529  0.00  0.00     0.126 C 
ENDBRANCH  25  26
ENDBRANCH   5  25
BRANCH  12  29
ATOM     29  O6  RES d   1     100.821  33.642  29.925  0.00  0.00    -0.276 OA
BRANCH  29  30
ATOM     30  C33 RES d   1      99.450  33.640  29.982  0.00  0.00     0.260 C 
ATOM     31  O13 RES d   1      98.828  33.325  30.958  0.00  0.00    -0.265 OA
ATOM     32  C37 RES d   1      98.878  34.164  28.696  0.00  0.00     0.126 C 
ENDBRANCH  29  30
ENDBRANCH  12  29
BRANCH  14  33
ATOM     33  O8  RES d   1     101.256  31.365  28.573  0.00  0.00    -0.351 OA
ATOM     34  C35 RES d   1     100.040  30.602  28.492  0.00  0.00     0.210 C 
ENDBRANCH  14  33
BRANCH  15  35
ATOM     35  O9  RES d   1     102.801  29.336  29.617  0.00  0.00    -0.276 OA
BRANCH  35  36
ATOM     36  C36 RES d   1     102.409  28.103  30.104  0.00  0.00     0.260 C 
ATOM     37  O14 RES d   1     101.279  27.845  30.395  0.00  0.00    -0.265 OA
ATOM     38  C38 RES d   1     103.597  27.190  30.214  0.00  0.00     0.126 C 
ENDBRANCH  35  36
ENDBRANCH  15  35
TORSDOF 12
ENDMDL
MODEL 8
REMARK VINA RESULT:    -7.257      2.174      5.211
REMARK INTER + INTRA:         -13.988
REMARK INTER:                 -12.346
REMARK INTRA:                  -1.643
REMARK UNBOUND:                -1.640
REMARK  12 active torsions:
REMARK  status: ('A' for Active; 'I' for Inactive)
REMARK    1  A    between atoms: O3_3  and  C16_16 
REMARK    2  A    between atoms: O3_3  and  C28_28 
REMARK    3  A    between atoms: O4_4  and  C18_18 
REMARK    4  A    between atoms: O4_4  and  C29_29 
REMARK    5  A    between atoms: O5_5  and  C21_21 
REMARK    6  A    between atoms: O5_5  and  C32_32 
REMARK    7  A    between atoms: O6_6  and  C24_24 
REMARK    8  A    between atoms: O6_6  and  C33_33 
REMARK    9  A    between atoms: O8_8  and  C26_26 
REMARK   10  A    between atoms: O9_9  and  C27_27 
REMARK   11  A    between atoms: O9_9  and  C36_36 
REMARK   12  A    between atoms: C19_19  and  C21_21 
ROOT
ATOM      1  O1  RES d   1     101.542  35.679  32.715  0.00  0.00    -0.368 OA
ATOM      2  O2  RES d   1     103.298  33.023  34.520  0.00  0.00    -0.306 OA
ATOM      3  O7  RES d   1     103.732  30.922  33.981  0.00  0.00    -0.259 OA
ATOM      4  C15 RES d   1     103.033  34.328  34.000  0.00  0.00     0.198 C 
ATOM      5  C16 RES d   1     102.974  35.304  35.167  0.00  0.00     0.196 C 
ATOM      6  C17 RES d   1     101.720  34.364  33.217  0.00  0.00     0.191 C 
ATOM      7  C18 RES d   1     102.595  36.695  34.661  0.00  0.00     0.195 C 
ATOM      8  C19 RES d   1     101.349  36.631  33.760  0.00  0.00     0.179 C 
ATOM      9  C20 RES d   1     101.778  33.339  32.113  0.00  0.00     0.026 A 
ATOM     10  C22 RES d   1     102.559  32.196  32.350  0.00  0.00     0.054 A 
ATOM     11  C23 RES d   1     103.255  31.973  33.652  0.00  0.00     0.294 C 
ATOM     12  C24 RES d   1     101.073  33.413  30.913  0.00  0.00     0.125 A 
ATOM     13  C25 RES d   1     102.655  31.179  31.403  0.00  0.00     0.058 A 
ATOM     14  C26 RES d   1     101.176  32.403  29.948  0.00  0.00     0.137 A 
ATOM     15  C27 RES d   1     101.981  31.293  30.207  0.00  0.00     0.116 A 
ENDROOT
BRANCH   8  16
ATOM     16  C21 RES d   1     100.993  37.959  33.126  0.00  0.00     0.213 C 
BRANCH  16  17
ATOM     17  O5  RES d   1     101.485  37.982  31.779  0.00  0.00    -0.319 OA
BRANCH  17  18
ATOM     18  C32 RES d   1     101.966  39.171  31.345  0.00  0.00     0.254 C 
ATOM     19  O12 RES d   1     101.273  40.011  30.830  0.00  0.00    -0.266 OA
ATOM     20  C34 RES d   1     103.444  39.281  31.602  0.00  0.00     0.126 C 
ENDBRANCH  17  18
ENDBRANCH  16  17
ENDBRANCH   8  16
BRANCH   7  21
ATOM     21  O4  RES d   1     102.279  37.518  35.796  0.00  0.00    -0.311 OA
BRANCH  21  22
ATOM     22  C29 RES d   1     103.230  38.376  36.268  0.00  0.00     0.255 C 
ATOM     23  O11 RES d   1     103.555  38.450  37.422  0.00  0.00    -0.266 OA
ATOM     24  C31 RES d   1     103.789  39.201  35.141  0.00  0.00     0.126 C 
ENDBRANCH  21  22
ENDBRANCH   7  21
BRANCH   5  25
ATOM     25  O3  RES d   1     104.272  35.359  35.777  0.00  0.00    -0.311 OA
BRANCH  25  26
ATOM     26  C28 RES d   1     104.342  35.325  37.140  0.00  0.00     0.255 C 
ATOM     27  O10 RES d   1     103.412  35.062  37.852  0.00  0.00    -0.266 OA
ATOM     28  C30 RES d   1     105.733  35.671  37.595  0.00  0.00     0.126 C 
ENDBRANCH  25  26
ENDBRANCH   5  25
BRANCH  12  29
ATOM     29  O6  RES d   1     100.280  34.493  30.552  0.00  0.00    -0.276 OA
BRANCH  29  30
ATOM     30  C33 RES d   1      99.030  34.613  31.106  0.00  0.00     0.260 C 
ATOM     31  O13 RES d   1      98.436  33.698  31.605  0.00  0.00    -0.265 OA
ATOM     32  C37 RES d   1      98.581  36.046  31.067  0.00  0.00     0.126 C 
ENDBRANCH  29  30
ENDBRANCH  12  29
BRANCH  14  33
ATOM     33  O8  RES d   1     100.450  32.469  28.799  0.00  0.00    -0.351 OA
ATOM     34  C35 RES d   1      99.215  31.734  28.817  0.00  0.00     0.210 C 
ENDBRANCH  14  33
BRANCH  15  35
ATOM     35  O9  RES d   1     102.130  30.325  29.223  0.00  0.00    -0.276 OA
BRANCH  35  36
ATOM     36  C36 RES d   1     101.777  29.030  29.554  0.00  0.00     0.260 C 
ATOM     37  O14 RES d   1     100.692  28.733  29.957  0.00  0.00    -0.265 OA
ATOM     38  C38 RES d   1     102.944  28.108  29.344  0.00  0.00     0.126 C 
ENDBRANCH  35  36
ENDBRANCH  15  35
TORSDOF 12
ENDMDL
MODEL 9
REMARK VINA RESULT:    -7.037      1.986      8.183
REMARK INTER + INTRA:         -13.613
REMARK INTER:                 -11.726
REMARK INTRA:                  -1.887
REMARK UNBOUND:                -1.640
REMARK  12 active torsions:
REMARK  status: ('A' for Active; 'I' for Inactive)
REMARK    1  A    between atoms: O3_3  and  C16_16 
REMARK    2  A    between atoms: O3_3  and  C28_28 
REMARK    3  A    between atoms: O4_4  and  C18_18 
REMARK    4  A    between atoms: O4_4  and  C29_29 
REMARK    5  A    between atoms: O5_5  and  C21_21 
REMARK    6  A    between atoms: O5_5  and  C32_32 
REMARK    7  A    between atoms: O6_6  and  C24_24 
REMARK    8  A    between atoms: O6_6  and  C33_33 
REMARK    9  A    between atoms: O8_8  and  C26_26 
REMARK   10  A    between atoms: O9_9  and  C27_27 
REMARK   11  A    between atoms: O9_9  and  C36_36 
REMARK   12  A    between atoms: C19_19  and  C21_21 
ROOT
ATOM      1  O1  RES d   1      99.922  34.053  32.623  0.00  0.00    -0.368 OA
ATOM      2  O2  RES d   1     103.427  33.042  32.935  0.00  0.00    -0.306 OA
ATOM      3  O7  RES d   1     105.101  33.896  34.101  0.00  0.00    -0.259 OA
ATOM      4  C15 RES d   1     102.004  32.911  32.864  0.00  0.00     0.198 C 
ATOM      5  C16 RES d   1     101.669  31.975  31.711  0.00  0.00     0.196 C 
ATOM      6  C17 RES d   1     101.325  34.265  32.658  0.00  0.00     0.191 C 
ATOM      7  C18 RES d   1     100.153  31.885  31.540  0.00  0.00     0.195 C 
ATOM      8  C19 RES d   1      99.522  33.288  31.488  0.00  0.00     0.179 C 
ATOM      9  C20 RES d   1     101.731  35.193  33.774  0.00  0.00     0.026 A 
ATOM     10  C22 RES d   1     103.003  34.993  34.334  0.00  0.00     0.054 A 
ATOM     11  C23 RES d   1     103.936  33.948  33.816  0.00  0.00     0.294 C 
ATOM     12  C24 RES d   1     100.970  36.262  34.243  0.00  0.00     0.125 A 
ATOM     13  C25 RES d   1     103.481  35.814  35.352  0.00  0.00     0.058 A 
ATOM     14  C26 RES d   1     101.435  37.085  35.277  0.00  0.00     0.137 A 
ATOM     15  C27 RES d   1     102.694  36.840  35.828  0.00  0.00     0.116 A 
ENDROOT
BRANCH   8  16
ATOM     16  C21 RES d   1      98.009  33.268  31.443  0.00  0.00     0.213 C 
BRANCH  16  17
ATOM     17  O5  RES d   1      97.521  32.408  32.483  0.00  0.00    -0.319 OA
BRANCH  17  18
ATOM     18  C32 RES d   1      96.360  31.763  32.220  0.00  0.00     0.254 C 
ATOM     19  O12 RES d   1      95.593  31.415  33.082  0.00  0.00    -0.266 OA
ATOM     20  C34 RES d   1      96.177  31.561  30.742  0.00  0.00     0.126 C 
ENDBRANCH  17  18
ENDBRANCH  16  17
ENDBRANCH   8  16
BRANCH   7  21
ATOM     21  O4  RES d   1      99.877  31.228  30.291  0.00  0.00    -0.311 OA
BRANCH  21  22
ATOM     22  C29 RES d   1      99.316  29.984  30.317  0.00  0.00     0.255 C 
ATOM     23  O11 RES d   1      99.152  29.342  31.320  0.00  0.00    -0.266 OA
ATOM     24  C31 RES d   1      98.951  29.551  28.924  0.00  0.00     0.126 C 
ENDBRANCH  21  22
ENDBRANCH   7  21
BRANCH   5  25
ATOM     25  O3  RES d   1     102.189  30.673  32.018  0.00  0.00    -0.311 OA
BRANCH  25  26
ATOM     26  C28 RES d   1     103.089  30.120  31.153  0.00  0.00     0.255 C 
ATOM     27  O10 RES d   1     102.859  29.911  29.993  0.00  0.00    -0.266 OA
ATOM     28  C30 RES d   1     104.375  29.815  31.868  0.00  0.00     0.126 C 
ENDBRANCH  25  26
ENDBRANCH   5  25
BRANCH  12  29
ATOM     29  O6  RES d   1      99.694  36.558  33.785  0.00  0.00    -0.276 OA
BRANCH  29  30
ATOM     30  C33 RES d   1      99.555  37.376  32.691  0.00  0.00     0.260 C 
ATOM     31  O13 RES d   1     100.408  38.129  32.314  0.00  0.00    -0.265 OA
ATOM     32  C37 RES d   1      98.238  37.117  32.015  0.00  0.00     0.126 C 
ENDBRANCH  29  30
ENDBRANCH  12  29
BRANCH  14  33
ATOM     33  O8  RES d   1     100.699  38.149  35.698  0.00  0.00    -0.351 OA
ATOM     34  C35 RES d   1      99.808  37.878  36.792  0.00  0.00     0.210 C 
ENDBRANCH  14  33
BRANCH  15  35
ATOM     35  O9  RES d   1     103.125  37.618  36.894  0.00  0.00    -0.276 OA
BRANCH  35  36
ATOM     36  C36 RES d   1     103.823  36.978  37.900  0.00  0.00     0.260 C 
ATOM     37  O14 RES d   1     103.319  36.195  38.648  0.00  0.00    -0.265 OA
ATOM     38  C38 RES d   1     105.256  37.428  37.900  0.00  0.00     0.126 C 
ENDBRANCH  35  36
ENDBRANCH  15  35
TORSDOF 12
ENDMDL
