MODEL 1
REMARK VINA RESULT:    -7.415      0.000      0.000
REMARK INTER + INTRA:         -10.174
REMARK INTER:                  -9.582
REMARK INTRA:                  -0.591
REMARK UNBOUND:                -0.591
REMARK  8 active torsions:
REMARK  status: ('A' for Active; 'I' for Inactive)
REMARK    1  A    between atoms: C3_3  and  N10_10 
REMARK    2  A    between atoms: C4_4  and  O8_8 
REMARK    3  A    between atoms: C5_5  and  O7_7 
REMARK    4  A    between atoms: C6_6  and  O9_9 
REMARK    5  A    between atoms: C20_20  and  C25_25 
REMARK    6  A    between atoms: C21_21  and  O23_23 
REMARK    7  A    between atoms: C22_22  and  O24_24 
REMARK    8  A    between atoms: C25_25  and  O26_26 
ROOT
ATOM      1  C1  RES d   1     100.656  36.847  35.561  0.00  0.00     0.028 A 
ATOM      2  C2  RES d   1     101.978  36.553  35.444  0.00  0.00     0.083 A 
ATOM      3  C3  RES d   1     102.745  36.337  36.553  0.00  0.00     0.112 A 
ATOM      4  C4  RES d   1     102.145  36.369  37.777  0.00  0.00     0.132 A 
ATOM      5  C5  RES d   1     100.831  36.649  37.883  0.00  0.00     0.135 A 
ATOM      6  C6  RES d   1     100.091  36.898  36.788  0.00  0.00     0.111 A 
ATOM      7  C15 RES d   1      99.832  37.168  34.347  0.00  0.00     0.191 C 
ATOM      8  C16 RES d   1     100.684  37.827  33.263  0.00  0.00     0.197 C 
ATOM      9  O17 RES d   1     101.977  37.198  33.101  0.00  0.00    -0.306 OA
ATOM     10  C18 RES d   1     102.499  36.389  34.056  0.00  0.00     0.297 C 
ATOM     11  O19 RES d   1      99.244  35.961  33.859  0.00  0.00    -0.368 OA
ATOM     12  C20 RES d   1      98.242  36.190  32.845  0.00  0.00     0.177 C 
ATOM     13  C21 RES d   1      98.478  37.488  32.045  0.00  0.00     0.180 C 
ATOM     14  C22 RES d   1      99.986  37.713  31.894  0.00  0.00     0.181 C 
ATOM     15  O27 RES d   1     103.385  35.597  33.762  0.00  0.00    -0.259 OA
ENDROOT
BRANCH   3  16
ATOM     16  N10 RES d   1     104.279  36.061  36.463  0.00  0.00    -0.223 N 
ATOM     17  N11 RES d   1     104.890  35.207  37.338  0.00  0.00    -0.159 NA
ATOM     18  C12 RES d   1     106.191  35.650  37.415  0.00  0.00     0.257 C 
ATOM     19  N13 RES d   1     106.412  36.834  36.771  0.00  0.00    -0.233 NA
ATOM     20  C14 RES d   1     105.222  37.160  36.190  0.00  0.00     0.236 C 
ENDBRANCH   3  16
BRANCH   4  21
ATOM     21  O8  RES d   1     102.829  36.141  38.967  0.00  0.00    -0.356 OA
ATOM     22  H29 RES d   1     102.301  35.564  39.550  0.00  0.00     0.218 HD
ENDBRANCH   4  21
BRANCH   5  23
ATOM     23  O7  RES d   1     100.223  36.697  39.134  0.00  0.00    -0.356 OA
ATOM     24  H28 RES d   1     100.732  37.298  39.713  0.00  0.00     0.218 HD
ENDBRANCH   5  23
BRANCH   6  25
ATOM     25  O9  RES d   1      98.742  37.191  36.935  0.00  0.00    -0.357 OA
ATOM     26  H30 RES d   1      98.213  36.392  36.732  0.00  0.00     0.217 HD
ENDBRANCH   6  25
BRANCH  14  27
ATOM     27  O24 RES d   1     100.206  38.905  31.122  0.00  0.00    -0.390 OA
ATOM     28  H39 RES d   1      99.425  39.012  30.548  0.00  0.00     0.210 HD
ENDBRANCH  14  27
BRANCH  12  29
ATOM     29  C25 RES d   1      96.843  36.134  33.474  0.00  0.00     0.198 C 
BRANCH  29  30
ATOM     30  O26 RES d   1      96.444  37.402  33.993  0.00  0.00    -0.398 OA
ATOM     31  H42 RES d   1      95.717  37.229  34.623  0.00  0.00     0.209 HD
ENDBRANCH  29  30
ENDBRANCH  12  29
BRANCH  13  32
ATOM     32  O23 RES d   1      97.876  37.391  30.750  0.00  0.00    -0.390 OA
ATOM     33  H38 RES d   1      98.087  38.236  30.305  0.00  0.00     0.210 HD
ENDBRANCH  13  32
TORSDOF 8
ENDMDL
MODEL 2
REMARK VINA RESULT:    -7.399      3.303      7.038
REMARK INTER + INTRA:         -10.153
REMARK INTER:                  -9.208
REMARK INTRA:                  -0.945
REMARK UNBOUND:                -0.591
REMARK  8 active torsions:
REMARK  status: ('A' for Active; 'I' for Inactive)
REMARK    1  A    between atoms: C3_3  and  N10_10 
REMARK    2  A    between atoms: C4_4  and  O8_8 
REMARK    3  A    between atoms: C5_5  and  O7_7 
REMARK    4  A    between atoms: C6_6  and  O9_9 
REMARK    5  A    between atoms: C20_20  and  C25_25 
REMARK    6  A    between atoms: C21_21  and  O23_23 
REMARK    7  A    between atoms: C22_22  and  O24_24 
REMARK    8  A    between atoms: C25_25  and  O26_26 
ROOT
ATOM      1  C1  RES d   1     102.586  37.470  34.004  0.00  0.00     0.028 A 
ATOM      2  C2  RES d   1     101.972  36.364  33.506  0.00  0.00     0.083 A 
ATOM      3  C3  RES d   1     101.296  36.415  32.320  0.00  0.00     0.112 A 
ATOM      4  C4  RES d   1     101.297  37.586  31.620  0.00  0.00     0.132 A 
ATOM      5  C5  RES d   1     101.919  38.674  32.115  0.00  0.00     0.135 A 
ATOM      6  C6  RES d   1     102.549  38.625  33.302  0.00  0.00     0.111 A 
ATOM      7  C15 RES d   1     103.256  37.435  35.348  0.00  0.00     0.191 C 
ATOM      8  C16 RES d   1     102.566  36.440  36.280  0.00  0.00     0.197 C 
ATOM      9  O17 RES d   1     102.219  35.199  35.624  0.00  0.00    -0.306 OA
ATOM     10  C18 RES d   1     102.165  35.099  34.272  0.00  0.00     0.297 C 
ATOM     11  O19 RES d   1     104.629  37.085  35.167  0.00  0.00    -0.368 OA
ATOM     12  C20 RES d   1     105.419  37.259  36.362  0.00  0.00     0.177 C 
ATOM     13  C21 RES d   1     104.594  37.112  37.658  0.00  0.00     0.180 C 
ATOM     14  C22 RES d   1     103.506  36.056  37.439  0.00  0.00     0.181 C 
ATOM     15  O27 RES d   1     102.235  33.998  33.741  0.00  0.00    -0.259 OA
ENDROOT
BRANCH   3  16
ATOM     16  N10 RES d   1     100.525  35.184  31.747  0.00  0.00    -0.223 N 
ATOM     17  N11 RES d   1     100.723  34.770  30.460  0.00  0.00    -0.159 NA
ATOM     18  C12 RES d   1      99.543  34.162  30.098  0.00  0.00     0.257 C 
ATOM     19  N13 RES d   1      98.541  34.307  31.015  0.00  0.00    -0.233 NA
ATOM     20  C14 RES d   1      99.098  34.986  32.058  0.00  0.00     0.236 C 
ENDBRANCH   3  16
BRANCH   4  21
ATOM     21  O8  RES d   1     100.659  37.739  30.393  0.00  0.00    -0.356 OA
ATOM     22  H29 RES d   1     101.170  38.348  29.825  0.00  0.00     0.218 HD
ENDBRANCH   4  21
BRANCH   5  23
ATOM     23  O7  RES d   1     101.905  39.872  31.407  0.00  0.00    -0.356 OA
ATOM     24  H28 RES d   1     102.109  39.690  30.468  0.00  0.00     0.218 HD
ENDBRANCH   5  23
BRANCH   6  25
ATOM     25  O9  RES d   1     103.172  39.767  33.785  0.00  0.00    -0.357 OA
ATOM     26  H30 RES d   1     104.109  39.565  33.987  0.00  0.00     0.217 HD
ENDBRANCH   6  25
BRANCH  14  27
ATOM     27  O24 RES d   1     102.757  35.896  38.655  0.00  0.00    -0.390 OA
ATOM     28  H39 RES d   1     102.606  34.939  38.764  0.00  0.00     0.210 HD
ENDBRANCH  14  27
BRANCH  12  29
ATOM     29  C25 RES d   1     106.176  38.593  36.296  0.00  0.00     0.198 C 
BRANCH  29  30
ATOM     30  O26 RES d   1     105.865  39.434  37.407  0.00  0.00    -0.398 OA
ATOM     31  H42 RES d   1     105.987  38.889  38.210  0.00  0.00     0.209 HD
ENDBRANCH  29  30
ENDBRANCH  12  29
BRANCH  13  32
ATOM     32  O23 RES d   1     105.438  36.712  38.743  0.00  0.00    -0.390 OA
ATOM     33  H38 RES d   1     104.876  36.771  39.541  0.00  0.00     0.210 HD
ENDBRANCH  13  32
TORSDOF 8
ENDMDL
MODEL 3
REMARK VINA RESULT:    -7.359      3.076      6.403
REMARK INTER + INTRA:         -10.102
REMARK INTER:                  -9.384
REMARK INTRA:                  -0.719
REMARK UNBOUND:                -0.591
REMARK  8 active torsions:
REMARK  status: ('A' for Active; 'I' for Inactive)
REMARK    1  A    between atoms: C3_3  and  N10_10 
REMARK    2  A    between atoms: C4_4  and  O8_8 
REMARK    3  A    between atoms: C5_5  and  O7_7 
REMARK    4  A    between atoms: C6_6  and  O9_9 
REMARK    5  A    between atoms: C20_20  and  C25_25 
REMARK    6  A    between atoms: C21_21  and  O23_23 
REMARK    7  A    between atoms: C22_22  and  O24_24 
REMARK    8  A    between atoms: C25_25  and  O26_26 
ROOT
ATOM      1  C1  RES d   1     102.588  37.134  36.142  0.00  0.00     0.028 A 
ATOM      2  C2  RES d   1     101.839  37.212  35.011  0.00  0.00     0.083 A 
ATOM      3  C3  RES d   1     100.501  36.941  35.040  0.00  0.00     0.112 A 
ATOM      4  C4  RES d   1      99.922  36.644  36.238  0.00  0.00     0.132 A 
ATOM      5  C5  RES d   1     100.670  36.580  37.358  0.00  0.00     0.135 A 
ATOM      6  C6  RES d   1     101.995  36.811  37.313  0.00  0.00     0.111 A 
ATOM      7  C15 RES d   1     104.074  37.348  36.095  0.00  0.00     0.191 C 
ATOM      8  C16 RES d   1     104.649  36.912  34.747  0.00  0.00     0.197 C 
ATOM      9  O17 RES d   1     103.833  37.323  33.626  0.00  0.00    -0.306 OA
ATOM     10  C18 RES d   1     102.539  37.697  33.787  0.00  0.00     0.297 C 
ATOM     11  O19 RES d   1     104.346  38.730  36.333  0.00  0.00    -0.368 OA
ATOM     12  C20 RES d   1     105.747  39.001  36.549  0.00  0.00     0.177 C 
ATOM     13  C21 RES d   1     106.675  37.988  35.844  0.00  0.00     0.180 C 
ATOM     14  C22 RES d   1     106.029  37.559  34.522  0.00  0.00     0.181 C 
ATOM     15  O27 RES d   1     101.991  38.373  32.925  0.00  0.00    -0.259 OA
ENDROOT
BRANCH   3  16
ATOM     16  N10 RES d   1      99.620  36.958  33.751  0.00  0.00    -0.223 N 
ATOM     17  N11 RES d   1      98.461  37.682  33.703  0.00  0.00    -0.159 NA
ATOM     18  C12 RES d   1      97.671  37.026  32.787  0.00  0.00     0.257 C 
ATOM     19  N13 RES d   1      98.186  35.832  32.366  0.00  0.00    -0.233 NA
ATOM     20  C14 RES d   1      99.397  35.721  32.982  0.00  0.00     0.236 C 
ENDBRANCH   3  16
BRANCH   4  21
ATOM     21  O8  RES d   1      98.565  36.374  36.382  0.00  0.00    -0.356 OA
ATOM     22  H29 RES d   1      98.049  36.915  35.754  0.00  0.00     0.218 HD
ENDBRANCH   4  21
BRANCH   5  23
ATOM     23  O7  RES d   1     100.081  36.261  38.577  0.00  0.00    -0.356 OA
ATOM     24  H28 RES d   1     100.385  36.897  39.255  0.00  0.00     0.218 HD
ENDBRANCH   5  23
BRANCH   6  25
ATOM     25  O9  RES d   1     102.735  36.729  38.484  0.00  0.00    -0.357 OA
ATOM     26  H30 RES d   1     102.824  35.790  38.747  0.00  0.00     0.217 HD
ENDBRANCH   6  25
BRANCH  14  27
ATOM     27  O24 RES d   1     106.907  36.639  33.851  0.00  0.00    -0.390 OA
ATOM     28  H39 RES d   1     107.305  37.129  33.107  0.00  0.00     0.210 HD
ENDBRANCH  14  27
BRANCH  12  29
ATOM     29  C25 RES d   1     106.031  39.107  38.054  0.00  0.00     0.198 C 
BRANCH  29  30
ATOM     30  O26 RES d   1     106.009  40.463  38.502  0.00  0.00    -0.398 OA
ATOM     31  H42 RES d   1     105.105  40.631  38.833  0.00  0.00     0.209 HD
ENDBRANCH  29  30
ENDBRANCH  12  29
BRANCH  13  32
ATOM     32  O23 RES d   1     107.952  38.579  35.584  0.00  0.00    -0.390 OA
ATOM     33  H38 RES d   1     108.212  38.249  34.701  0.00  0.00     0.210 HD
ENDBRANCH  13  32
TORSDOF 8
ENDMDL
MODEL 4
REMARK VINA RESULT:    -7.346      4.556      7.636
REMARK INTER + INTRA:         -10.085
REMARK INTER:                  -9.164
REMARK INTRA:                  -0.920
REMARK UNBOUND:                -0.591
REMARK  8 active torsions:
REMARK  status: ('A' for Active; 'I' for Inactive)
REMARK    1  A    between atoms: C3_3  and  N10_10 
REMARK    2  A    between atoms: C4_4  and  O8_8 
REMARK    3  A    between atoms: C5_5  and  O7_7 
REMARK    4  A    between atoms: C6_6  and  O9_9 
REMARK    5  A    between atoms: C20_20  and  C25_25 
REMARK    6  A    between atoms: C21_21  and  O23_23 
REMARK    7  A    between atoms: C22_22  and  O24_24 
REMARK    8  A    between atoms: C25_25  and  O26_26 
ROOT
ATOM      1  C1  RES d   1      99.591  35.019  31.654  0.00  0.00     0.028 A 
ATOM      2  C2  RES d   1      99.094  33.795  31.973  0.00  0.00     0.083 A 
ATOM      3  C3  RES d   1      98.665  32.941  30.997  0.00  0.00     0.112 A 
ATOM      4  C4  RES d   1      98.795  33.322  29.694  0.00  0.00     0.132 A 
ATOM      5  C5  RES d   1      99.300  34.533  29.387  0.00  0.00     0.135 A 
ATOM      6  C6  RES d   1      99.685  35.383  30.356  0.00  0.00     0.111 A 
ATOM      7  C15 RES d   1      99.982  35.991  32.731  0.00  0.00     0.191 C 
ATOM      8  C16 RES d   1      99.129  35.797  33.984  0.00  0.00     0.197 C 
ATOM      9  O17 RES d   1      98.926  34.404  34.319  0.00  0.00    -0.306 OA
ATOM     10  C18 RES d   1      99.140  33.416  33.414  0.00  0.00     0.297 C 
ATOM     11  O19 RES d   1     101.366  35.807  33.033  0.00  0.00    -0.368 OA
ATOM     12  C20 RES d   1     101.904  36.847  33.876  0.00  0.00     0.177 C 
ATOM     13  C21 RES d   1     100.841  37.496  34.788  0.00  0.00     0.180 C 
ATOM     14  C22 RES d   1      99.824  36.427  35.205  0.00  0.00     0.181 C 
ATOM     15  O27 RES d   1      99.321  32.269  33.801  0.00  0.00    -0.259 OA
ENDROOT
BRANCH   3  16
ATOM     16  N10 RES d   1      98.030  31.553  31.325  0.00  0.00    -0.223 N 
ATOM     17  N11 RES d   1      98.490  30.412  30.729  0.00  0.00    -0.159 NA
ATOM     18  C12 RES d   1      97.411  29.559  30.716  0.00  0.00     0.257 C 
ATOM     19  N13 RES d   1      96.241  30.139  31.116  0.00  0.00    -0.233 NA
ATOM     20  C14 RES d   1      96.570  31.414  31.470  0.00  0.00     0.236 C 
ENDBRANCH   3  16
BRANCH   4  21
ATOM     21  O8  RES d   1      98.411  32.520  28.624  0.00  0.00    -0.356 OA
ATOM     22  H29 RES d   1      99.164  31.971  28.331  0.00  0.00     0.218 HD
ENDBRANCH   4  21
BRANCH   5  23
ATOM     23  O7  RES d   1      99.418  34.927  28.057  0.00  0.00    -0.356 OA
ATOM     24  H28 RES d   1      98.537  34.894  27.635  0.00  0.00     0.218 HD
ENDBRANCH   5  23
BRANCH   6  25
ATOM     25  O9  RES d   1     100.193  36.625  30.003  0.00  0.00    -0.357 OA
ATOM     26  H30 RES d   1      99.598  37.327  30.340  0.00  0.00     0.217 HD
ENDBRANCH   6  25
BRANCH  14  27
ATOM     27  O24 RES d   1      98.852  37.024  36.079  0.00  0.00    -0.390 OA
ATOM     28  H39 RES d   1      98.845  37.978  35.877  0.00  0.00     0.210 HD
ENDBRANCH  14  27
BRANCH  12  29
ATOM     29  C25 RES d   1     102.650  37.879  33.019  0.00  0.00     0.198 C 
BRANCH  29  30
ATOM     30  O26 RES d   1     103.240  38.904  33.818  0.00  0.00    -0.398 OA
ATOM     31  H42 RES d   1     104.186  38.675  33.911  0.00  0.00     0.209 HD
ENDBRANCH  29  30
ENDBRANCH  12  29
BRANCH  13  32
ATOM     32  O23 RES d   1     101.457  38.051  35.954  0.00  0.00    -0.390 OA
ATOM     33  H38 RES d   1     101.234  39.004  35.934  0.00  0.00     0.210 HD
ENDBRANCH  13  32
TORSDOF 8
ENDMDL
MODEL 5
REMARK VINA RESULT:    -7.294      3.073      7.101
REMARK INTER + INTRA:         -10.018
REMARK INTER:                 -10.242
REMARK INTRA:                   0.224
REMARK UNBOUND:                -0.591
REMARK  8 active torsions:
REMARK  status: ('A' for Active; 'I' for Inactive)
REMARK    1  A    between atoms: C3_3  and  N10_10 
REMARK    2  A    between atoms: C4_4  and  O8_8 
REMARK    3  A    between atoms: C5_5  and  O7_7 
REMARK    4  A    between atoms: C6_6  and  O9_9 
REMARK    5  A    between atoms: C20_20  and  C25_25 
REMARK    6  A    between atoms: C21_21  and  O23_23 
REMARK    7  A    between atoms: C22_22  and  O24_24 
REMARK    8  A    between atoms: C25_25  and  O26_26 
ROOT
ATOM      1  C1  RES d   1     102.537  37.849  34.041  0.00  0.00     0.028 A 
ATOM      2  C2  RES d   1     101.212  37.569  34.150  0.00  0.00     0.083 A 
ATOM      3  C3  RES d   1     100.312  38.097  33.269  0.00  0.00     0.112 A 
ATOM      4  C4  RES d   1     100.778  38.869  32.245  0.00  0.00     0.132 A 
ATOM      5  C5  RES d   1     102.095  39.132  32.137  0.00  0.00     0.135 A 
ATOM      6  C6  RES d   1     102.970  38.639  33.032  0.00  0.00     0.111 A 
ATOM      7  C15 RES d   1     103.516  37.338  35.059  0.00  0.00     0.191 C 
ATOM      8  C16 RES d   1     102.858  37.200  36.432  0.00  0.00     0.197 C 
ATOM      9  O17 RES d   1     101.531  36.629  36.367  0.00  0.00    -0.306 OA
ATOM     10  C18 RES d   1     100.828  36.591  35.208  0.00  0.00     0.297 C 
ATOM     11  O19 RES d   1     104.022  36.078  34.617  0.00  0.00    -0.368 OA
ATOM     12  C20 RES d   1     105.145  35.615  35.396  0.00  0.00     0.177 C 
ATOM     13  C21 RES d   1     105.134  36.145  36.846  0.00  0.00     0.180 C 
ATOM     14  C22 RES d   1     103.682  36.253  37.325  0.00  0.00     0.181 C 
ATOM     15  O27 RES d   1      99.900  35.802  35.087  0.00  0.00    -0.259 OA
ENDROOT
BRANCH   3  16
ATOM     16  N10 RES d   1      98.776  37.850  33.399  0.00  0.00    -0.223 N 
ATOM     17  N11 RES d   1      98.106  38.183  34.543  0.00  0.00    -0.159 NA
ATOM     18  C12 RES d   1      97.034  37.322  34.590  0.00  0.00     0.257 C 
ATOM     19  N13 RES d   1      97.066  36.347  33.634  0.00  0.00    -0.233 NA
ATOM     20  C14 RES d   1      98.172  36.609  32.883  0.00  0.00     0.236 C 
ENDBRANCH   3  16
BRANCH   4  21
ATOM     21  O8  RES d   1      99.950  39.436  31.282  0.00  0.00    -0.356 OA
ATOM     22  H29 RES d   1      99.068  39.019  31.312  0.00  0.00     0.218 HD
ENDBRANCH   4  21
BRANCH   5  23
ATOM     23  O7  RES d   1     102.568  39.932  31.101  0.00  0.00    -0.356 OA
ATOM     24  H28 RES d   1     102.659  40.851  31.424  0.00  0.00     0.218 HD
ENDBRANCH   5  23
BRANCH   6  25
ATOM     25  O9  RES d   1     104.319  38.937  32.895  0.00  0.00    -0.357 OA
ATOM     26  H30 RES d   1     104.760  38.221  32.392  0.00  0.00     0.217 HD
ENDBRANCH   6  25
BRANCH  14  27
ATOM     27  O24 RES d   1     103.673  36.717  38.685  0.00  0.00    -0.390 OA
ATOM     28  H39 RES d   1     102.817  36.445  39.065  0.00  0.00     0.210 HD
ENDBRANCH  14  27
BRANCH  12  29
ATOM     29  C25 RES d   1     106.456  35.935  34.664  0.00  0.00     0.198 C 
BRANCH  29  30
ATOM     30  O26 RES d   1     107.419  36.523  35.537  0.00  0.00    -0.398 OA
ATOM     31  H42 RES d   1     108.043  35.811  35.782  0.00  0.00     0.209 HD
ENDBRANCH  29  30
ENDBRANCH  12  29
BRANCH  13  32
ATOM     32  O23 RES d   1     105.857  35.258  37.706  0.00  0.00    -0.390 OA
ATOM     33  H38 RES d   1     105.172  34.754  38.189  0.00  0.00     0.210 HD
ENDBRANCH  13  32
TORSDOF 8
ENDMDL
MODEL 6
REMARK VINA RESULT:    -7.219      4.018      5.455
REMARK INTER + INTRA:          -9.920
REMARK INTER:                  -9.003
REMARK INTRA:                  -0.918
REMARK UNBOUND:                -0.591
REMARK  8 active torsions:
REMARK  status: ('A' for Active; 'I' for Inactive)
REMARK    1  A    between atoms: C3_3  and  N10_10 
REMARK    2  A    between atoms: C4_4  and  O8_8 
REMARK    3  A    between atoms: C5_5  and  O7_7 
REMARK    4  A    between atoms: C6_6  and  O9_9 
REMARK    5  A    between atoms: C20_20  and  C25_25 
REMARK    6  A    between atoms: C21_21  and  O23_23 
REMARK    7  A    between atoms: C22_22  and  O24_24 
REMARK    8  A    between atoms: C25_25  and  O26_26 
ROOT
ATOM      1  C1  RES d   1     100.375  34.895  31.350  0.00  0.00     0.028 A 
ATOM      2  C2  RES d   1     101.150  34.736  32.456  0.00  0.00     0.083 A 
ATOM      3  C3  RES d   1     101.271  35.740  33.373  0.00  0.00     0.112 A 
ATOM      4  C4  RES d   1     100.555  36.885  33.184  0.00  0.00     0.132 A 
ATOM      5  C5  RES d   1      99.779  37.030  32.092  0.00  0.00     0.135 A 
ATOM      6  C6  RES d   1      99.696  36.050  31.174  0.00  0.00     0.111 A 
ATOM      7  C15 RES d   1     100.311  33.824  30.299  0.00  0.00     0.191 C 
ATOM      8  C16 RES d   1     101.624  33.046  30.225  0.00  0.00     0.197 C 
ATOM      9  O17 RES d   1     102.169  32.735  31.528  0.00  0.00    -0.306 OA
ATOM     10  C18 RES d   1     101.765  33.390  32.644  0.00  0.00     0.297 C 
ATOM     11  O19 RES d   1      99.225  32.948  30.603  0.00  0.00    -0.368 OA
ATOM     12  C20 RES d   1      98.922  32.029  29.532  0.00  0.00     0.177 C 
ATOM     13  C21 RES d   1     100.146  31.706  28.649  0.00  0.00     0.180 C 
ATOM     14  C22 RES d   1     101.402  31.691  29.527  0.00  0.00     0.181 C 
ATOM     15  O27 RES d   1     101.948  32.886  33.745  0.00  0.00    -0.259 OA
ENDROOT
BRANCH   3  16
ATOM     16  N10 RES d   1     102.201  35.620  34.622  0.00  0.00    -0.223 N 
ATOM     17  N11 RES d   1     101.729  35.890  35.876  0.00  0.00    -0.159 NA
ATOM     18  C12 RES d   1     102.832  36.301  36.589  0.00  0.00     0.257 C 
ATOM     19  N13 RES d   1     103.953  36.470  35.826  0.00  0.00    -0.233 NA
ATOM     20  C14 RES d   1     103.594  36.095  34.565  0.00  0.00     0.236 C 
ENDBRANCH   3  16
BRANCH   4  21
ATOM     21  O8  RES d   1     100.588  37.959  34.069  0.00  0.00    -0.356 OA
ATOM     22  H29 RES d   1      99.801  37.940  34.646  0.00  0.00     0.218 HD
ENDBRANCH   4  21
BRANCH   5  23
ATOM     23  O7  RES d   1      99.061  38.205  31.893  0.00  0.00    -0.356 OA
ATOM     24  H28 RES d   1      99.166  38.489  30.963  0.00  0.00     0.218 HD
ENDBRANCH   5  23
BRANCH   6  25
ATOM     25  O9  RES d   1      98.894  36.237  30.057  0.00  0.00    -0.357 OA
ATOM     26  H30 RES d   1      98.000  35.881  30.236  0.00  0.00     0.217 HD
ENDBRANCH   6  25
BRANCH  14  27
ATOM     27  O24 RES d   1     102.538  31.360  28.710  0.00  0.00    -0.390 OA
ATOM     28  H39 RES d   1     103.133  30.824  29.268  0.00  0.00     0.210 HD
ENDBRANCH  14  27
BRANCH  12  29
ATOM     29  C25 RES d   1      97.732  32.555  28.716  0.00  0.00     0.198 C 
BRANCH  29  30
ATOM     30  O26 RES d   1      97.262  31.585  27.780  0.00  0.00    -0.398 OA
ATOM     31  H42 RES d   1      96.437  31.215  28.154  0.00  0.00     0.209 HD
ENDBRANCH  29  30
ENDBRANCH  12  29
BRANCH  13  32
ATOM     32  O23 RES d   1      99.984  30.430  28.022  0.00  0.00    -0.390 OA
ATOM     33  H38 RES d   1      99.619  29.847  28.717  0.00  0.00     0.210 HD
ENDBRANCH  13  32
TORSDOF 8
ENDMDL
MODEL 7
REMARK VINA RESULT:    -7.125      4.483      6.943
REMARK INTER + INTRA:          -9.799
REMARK INTER:                  -9.085
REMARK INTRA:                  -0.713
REMARK UNBOUND:                -0.591
REMARK  8 active torsions:
REMARK  status: ('A' for Active; 'I' for Inactive)
REMARK    1  A    between atoms: C3_3  and  N10_10 
REMARK    2  A    between atoms: C4_4  and  O8_8 
REMARK    3  A    between atoms: C5_5  and  O7_7 
REMARK    4  A    between atoms: C6_6  and  O9_9 
REMARK    5  A    between atoms: C20_20  and  C25_25 
REMARK    6  A    between atoms: C21_21  and  O23_23 
REMARK    7  A    between atoms: C22_22  and  O24_24 
REMARK    8  A    between atoms: C25_25  and  O26_26 
ROOT
ATOM      1  C1  RES d   1     100.002  34.901  31.187  0.00  0.00     0.028 A 
ATOM      2  C2  RES d   1     100.727  33.770  31.395  0.00  0.00     0.083 A 
ATOM      3  C3  RES d   1     100.866  32.839  30.406  0.00  0.00     0.112 A 
ATOM      4  C4  RES d   1     100.308  33.094  29.188  0.00  0.00     0.132 A 
ATOM      5  C5  RES d   1      99.601  34.224  28.986  0.00  0.00     0.135 A 
ATOM      6  C6  RES d   1      99.437  35.118  29.978  0.00  0.00     0.111 A 
ATOM      7  C15 RES d   1      99.777  35.884  32.301  0.00  0.00     0.191 C 
ATOM      8  C16 RES d   1      99.752  35.180  33.658  0.00  0.00     0.197 C 
ATOM      9  O17 RES d   1     100.783  34.174  33.791  0.00  0.00    -0.306 OA
ATOM     10  C18 RES d   1     101.423  33.663  32.709  0.00  0.00     0.297 C 
ATOM     11  O19 RES d   1     100.815  36.864  32.264  0.00  0.00    -0.368 OA
ATOM     12  C20 RES d   1     100.562  37.988  33.134  0.00  0.00     0.177 C 
ATOM     13  C21 RES d   1      99.681  37.626  34.348  0.00  0.00     0.180 C 
ATOM     14  C22 RES d   1     100.005  36.194  34.789  0.00  0.00     0.181 C 
ATOM     15  O27 RES d   1     102.507  33.112  32.850  0.00  0.00    -0.259 OA
ENDROOT
BRANCH   3  16
ATOM     16  N10 RES d   1     101.636  31.499  30.626  0.00  0.00    -0.223 N 
ATOM     17  N11 RES d   1     102.583  31.080  29.735  0.00  0.00    -0.159 NA
ATOM     18  C12 RES d   1     102.588  29.708  29.841  0.00  0.00     0.257 C 
ATOM     19  N13 RES d   1     101.586  29.210  30.626  0.00  0.00    -0.233 NA
ATOM     20  C14 RES d   1     100.927  30.301  31.110  0.00  0.00     0.236 C 
ENDBRANCH   3  16
BRANCH   4  21
ATOM     21  O8  RES d   1     100.409  32.224  28.106  0.00  0.00    -0.356 OA
ATOM     22  H29 RES d   1      99.969  31.378  28.316  0.00  0.00     0.218 HD
ENDBRANCH   4  21
BRANCH   5  23
ATOM     23  O7  RES d   1      99.020  34.476  27.747  0.00  0.00    -0.356 OA
ATOM     24  H28 RES d   1      99.113  35.426  27.538  0.00  0.00     0.218 HD
ENDBRANCH   5  23
BRANCH   6  25
ATOM     25  O9  RES d   1      98.697  36.266  29.737  0.00  0.00    -0.357 OA
ATOM     26  H30 RES d   1      98.264  36.554  30.568  0.00  0.00     0.217 HD
ENDBRANCH   6  25
BRANCH  14  27
ATOM     27  O24 RES d   1      99.207  35.868  35.939  0.00  0.00    -0.390 OA
ATOM     28  H39 RES d   1      98.727  35.048  35.719  0.00  0.00     0.210 HD
ENDBRANCH  14  27
BRANCH  12  29
ATOM     29  C25 RES d   1      99.990  39.158  32.321  0.00  0.00     0.198 C 
BRANCH  29  30
ATOM     30  O26 RES d   1     100.943  39.675  31.393  0.00  0.00    -0.398 OA
ATOM     31  H42 RES d   1     101.586  38.957  31.227  0.00  0.00     0.209 HD
ENDBRANCH  29  30
ENDBRANCH  12  29
BRANCH  13  32
ATOM     32  O23 RES d   1      99.930  38.528  35.431  0.00  0.00    -0.390 OA
ATOM     33  H38 RES d   1     100.750  39.002  35.187  0.00  0.00     0.210 HD
ENDBRANCH  13  32
TORSDOF 8
ENDMDL
MODEL 8
REMARK VINA RESULT:    -7.106      4.135      6.260
REMARK INTER + INTRA:          -9.775
REMARK INTER:                  -9.059
REMARK INTRA:                  -0.716
REMARK UNBOUND:                -0.591
REMARK  8 active torsions:
REMARK  status: ('A' for Active; 'I' for Inactive)
REMARK    1  A    between atoms: C3_3  and  N10_10 
REMARK    2  A    between atoms: C4_4  and  O8_8 
REMARK    3  A    between atoms: C5_5  and  O7_7 
REMARK    4  A    between atoms: C6_6  and  O9_9 
REMARK    5  A    between atoms: C20_20  and  C25_25 
REMARK    6  A    between atoms: C21_21  and  O23_23 
REMARK    7  A    between atoms: C22_22  and  O24_24 
REMARK    8  A    between atoms: C25_25  and  O26_26 
ROOT
ATOM      1  C1  RES d   1     101.110  34.676  33.458  0.00  0.00     0.028 A 
ATOM      2  C2  RES d   1     100.377  34.042  32.504  0.00  0.00     0.083 A 
ATOM      3  C3  RES d   1     100.881  32.960  31.841  0.00  0.00     0.112 A 
ATOM      4  C4  RES d   1     102.114  32.495  32.195  0.00  0.00     0.132 A 
ATOM      5  C5  RES d   1     102.828  33.121  33.151  0.00  0.00     0.135 A 
ATOM      6  C6  RES d   1     102.340  34.210  33.771  0.00  0.00     0.111 A 
ATOM      7  C15 RES d   1     100.590  35.917  34.125  0.00  0.00     0.191 C 
ATOM      8  C16 RES d   1      99.685  36.710  33.183  0.00  0.00     0.197 C 
ATOM      9  O17 RES d   1      98.777  35.870  32.433  0.00  0.00    -0.306 OA
ATOM     10  C18 RES d   1      98.984  34.535  32.304  0.00  0.00     0.297 C 
ATOM     11  O19 RES d   1      99.879  35.539  35.305  0.00  0.00    -0.368 OA
ATOM     12  C20 RES d   1      99.548  36.663  36.149  0.00  0.00     0.177 C 
ATOM     13  C21 RES d   1      99.395  37.983  35.365  0.00  0.00     0.180 C 
ATOM     14  C22 RES d   1      98.796  37.677  33.987  0.00  0.00     0.181 C 
ATOM     15  O27 RES d   1      98.051  33.803  31.999  0.00  0.00    -0.259 OA
ENDROOT
BRANCH   3  16
ATOM     16  N10 RES d   1     100.097  32.245  30.696  0.00  0.00    -0.223 N 
ATOM     17  N11 RES d   1      99.807  30.912  30.771  0.00  0.00    -0.159 NA
ATOM     18  C12 RES d   1      99.719  30.494  29.462  0.00  0.00     0.257 C 
ATOM     19  N13 RES d   1     100.098  31.440  28.553  0.00  0.00    -0.233 NA
ATOM     20  C14 RES d   1     100.390  32.553  29.285  0.00  0.00     0.236 C 
ENDBRANCH   3  16
BRANCH   4  21
ATOM     21  O8  RES d   1     102.709  31.387  31.600  0.00  0.00    -0.356 OA
ATOM     22  H29 RES d   1     102.179  31.095  30.834  0.00  0.00     0.218 HD
ENDBRANCH   4  21
BRANCH   5  23
ATOM     23  O7  RES d   1     104.092  32.655  33.500  0.00  0.00    -0.356 OA
ATOM     24  H28 RES d   1     104.357  33.057  34.351  0.00  0.00     0.218 HD
ENDBRANCH   5  23
BRANCH   6  25
ATOM     25  O9  RES d   1     103.107  34.835  34.745  0.00  0.00    -0.357 OA
ATOM     26  H30 RES d   1     103.991  34.416  34.780  0.00  0.00     0.217 HD
ENDBRANCH   6  25
BRANCH  14  27
ATOM     27  O24 RES d   1      98.625  38.910  33.269  0.00  0.00    -0.390 OA
ATOM     28  H39 RES d   1      97.807  39.319  33.610  0.00  0.00     0.210 HD
ENDBRANCH  14  27
BRANCH  12  29
ATOM     29  C25 RES d   1     100.566  36.774  37.293  0.00  0.00     0.198 C 
BRANCH  29  30
ATOM     30  O26 RES d   1     100.001  36.383  38.544  0.00  0.00    -0.398 OA
ATOM     31  H42 RES d   1     100.545  36.806  39.238  0.00  0.00     0.209 HD
ENDBRANCH  29  30
ENDBRANCH  12  29
BRANCH  13  32
ATOM     32  O23 RES d   1      98.536  38.885  36.071  0.00  0.00    -0.390 OA
ATOM     33  H38 RES d   1      98.048  38.328  36.710  0.00  0.00     0.210 HD
ENDBRANCH  13  32
TORSDOF 8
ENDMDL
MODEL 9
REMARK VINA RESULT:    -7.066      2.169      2.355
REMARK INTER + INTRA:          -9.723
REMARK INTER:                  -8.830
REMARK INTRA:                  -0.893
REMARK UNBOUND:                -0.591
REMARK  8 active torsions:
REMARK  status: ('A' for Active; 'I' for Inactive)
REMARK    1  A    between atoms: C3_3  and  N10_10 
REMARK    2  A    between atoms: C4_4  and  O8_8 
REMARK    3  A    between atoms: C5_5  and  O7_7 
REMARK    4  A    between atoms: C6_6  and  O9_9 
REMARK    5  A    between atoms: C20_20  and  C25_25 
REMARK    6  A    between atoms: C21_21  and  O23_23 
REMARK    7  A    between atoms: C22_22  and  O24_24 
REMARK    8  A    between atoms: C25_25  and  O26_26 
ROOT
ATOM      1  C1  RES d   1     100.282  36.044  34.737  0.00  0.00     0.028 A 
ATOM      2  C2  RES d   1     101.609  36.036  35.033  0.00  0.00     0.083 A 
ATOM      3  C3  RES d   1     102.072  36.625  36.175  0.00  0.00     0.112 A 
ATOM      4  C4  RES d   1     101.169  37.172  37.039  0.00  0.00     0.132 A 
ATOM      5  C5  RES d   1      99.854  37.164  36.743  0.00  0.00     0.135 A 
ATOM      6  C6  RES d   1      99.411  36.616  35.597  0.00  0.00     0.111 A 
ATOM      7  C15 RES d   1      99.783  35.473  33.440  0.00  0.00     0.191 C 
ATOM      8  C16 RES d   1     100.829  35.620  32.336  0.00  0.00     0.197 C 
ATOM      9  O17 RES d   1     102.169  35.309  32.783  0.00  0.00    -0.306 OA
ATOM     10  C18 RES d   1     102.491  35.277  34.100  0.00  0.00     0.297 C 
ATOM     11  O19 RES d   1      99.455  34.097  33.641  0.00  0.00    -0.368 OA
ATOM     12  C20 RES d   1      98.741  33.518  32.529  0.00  0.00     0.177 C 
ATOM     13  C21 RES d   1      99.063  34.201  31.183  0.00  0.00     0.180 C 
ATOM     14  C22 RES d   1     100.531  34.639  31.186  0.00  0.00     0.181 C 
ATOM     15  O27 RES d   1     103.490  34.671  34.467  0.00  0.00    -0.259 OA
ENDROOT
BRANCH   3  16
ATOM     16  N10 RES d   1     103.594  36.693  36.519  0.00  0.00    -0.223 N 
ATOM     17  N11 RES d   1     104.060  36.255  37.726  0.00  0.00    -0.159 NA
ATOM     18  C12 RES d   1     105.203  36.988  37.952  0.00  0.00     0.257 C 
ATOM     19  N13 RES d   1     105.408  37.987  37.043  0.00  0.00    -0.233 NA
ATOM     20  C14 RES d   1     104.393  37.872  36.140  0.00  0.00     0.236 C 
ENDBRANCH   3  16
BRANCH   4  21
ATOM     21  O8  RES d   1     101.532  37.775  38.239  0.00  0.00    -0.356 OA
ATOM     22  H29 RES d   1     100.802  38.334  38.566  0.00  0.00     0.218 HD
ENDBRANCH   4  21
BRANCH   5  23
ATOM     23  O7  RES d   1      98.936  37.736  37.618  0.00  0.00    -0.356 OA
ATOM     24  H28 RES d   1      98.035  37.452  37.366  0.00  0.00     0.218 HD
ENDBRANCH   5  23
BRANCH   6  25
ATOM     25  O9  RES d   1      98.051  36.633  35.322  0.00  0.00    -0.357 OA
ATOM     26  H30 RES d   1      97.566  36.202  36.056  0.00  0.00     0.217 HD
ENDBRANCH   6  25
BRANCH  14  27
ATOM     27  O24 RES d   1     100.840  35.247  29.920  0.00  0.00    -0.390 OA
ATOM     28  H39 RES d   1     100.051  35.132  29.358  0.00  0.00     0.210 HD
ENDBRANCH  14  27
BRANCH  12  29
ATOM     29  C25 RES d   1      97.236  33.497  32.831  0.00  0.00     0.198 C 
BRANCH  29  30
ATOM     30  O26 RES d   1      96.558  32.497  32.071  0.00  0.00    -0.398 OA
ATOM     31  H42 RES d   1      97.182  31.750  31.974  0.00  0.00     0.209 HD
ENDBRANCH  29  30
ENDBRANCH  12  29
BRANCH  13  32
ATOM     32  O23 RES d   1      98.836  33.295  30.098  0.00  0.00    -0.390 OA
ATOM     33  H38 RES d   1      99.263  33.711  29.322  0.00  0.00     0.210 HD
ENDBRANCH  13  32
TORSDOF 8
ENDMDL
