MODEL 1
REMARK VINA RESULT:    -8.797      0.000      0.000
REMARK INTER + INTRA:         -14.620
REMARK INTER:                 -13.426
REMARK INTRA:                  -1.194
REMARK UNBOUND:                -1.194
REMARK SMILES COc1ccc(C(=O)OC[C@H]2O[C@H]3c4c(cc(O)c(OC)c4O)C(=O)O[C@@H]3[C@@H](O)[C@@H]2O)cc1OC
REMARK SMILES IDX 9 1 10 2 11 3 12 4 13 5 27 6 14 7 30 8 26 9 28 10 15 11
REMARK SMILES IDX 22 12 24 13 16 14 19 15 25 16 17 17 31 18 29 20 23 22 20 24
REMARK SMILES IDX 21 25 18 26 7 28 8 29 6 30 32 31 5 32 33 33 4 34 3 35 34 36
REMARK SMILES IDX 35 37 2 38 1 39
REMARK H PARENT 31 19 29 21 23 23 18 27
REMARK Flexibility Score: inf
ROOT
ATOM      1  O   UNL     1      98.458  36.840  36.220  1.00  0.00    -0.459 OA
ENDROOT
BRANCH   1   2
ATOM      2  C   UNL     1      99.460  37.479  36.990  1.00  0.00     0.268 C 
BRANCH   2   3
ATOM      3  C   UNL     1     100.804  36.831  36.673  1.00  0.00     0.188 C 
ATOM      4  O   UNL     1     101.407  37.599  35.626  1.00  0.00    -0.360 OA
ATOM      5  C   UNL     1     102.630  37.022  35.177  1.00  0.00     0.197 C 
ATOM      6  C   UNL     1     103.650  37.058  36.307  1.00  0.00     0.241 C 
ATOM      7  C   UNL     1     103.227  37.784  34.023  1.00  0.00     0.045 A 
ATOM      8  C   UNL     1     101.725  36.777  37.898  1.00  0.00     0.179 C 
ATOM      9  O   UNL     1     104.883  36.455  35.867  1.00  0.00    -0.453 OA
ATOM     10  C   UNL     1     103.123  36.286  37.517  1.00  0.00     0.189 C 
ATOM     11  C   UNL     1     104.613  37.704  33.815  1.00  0.00     0.073 A 
ATOM     12  C   UNL     1     102.444  38.520  33.125  1.00  0.00     0.168 A 
ATOM     13  C   UNL     1     105.459  36.869  34.706  1.00  0.00     0.339 C 
ATOM     14  C   UNL     1     105.207  38.373  32.740  1.00  0.00     0.066 A 
ATOM     15  C   UNL     1     103.039  39.191  32.056  1.00  0.00     0.203 A 
ATOM     16  O   UNL     1     106.601  36.556  34.395  1.00  0.00    -0.246 OA
ATOM     17  C   UNL     1     104.418  39.122  31.867  1.00  0.00     0.162 A 
BRANCH   8  18
ATOM     18  O   UNL     1     101.196  35.889  38.878  1.00  0.00    -0.387 OA
ATOM     19  H   UNL     1     101.093  36.384  39.708  1.00  0.00     0.211 HD
ENDBRANCH   8  18
BRANCH  10  20
ATOM     20  O   UNL     1     104.013  36.504  38.614  1.00  0.00    -0.386 OA
ATOM     21  H   UNL     1     103.791  35.868  39.315  1.00  0.00     0.211 HD
ENDBRANCH  10  20
BRANCH  12  22
ATOM     22  O   UNL     1     101.085  38.581  33.244  1.00  0.00    -0.504 OA
ATOM     23  H   UNL     1     100.796  39.506  33.286  1.00  0.00     0.293 HD
ENDBRANCH  12  22
BRANCH  15  24
ATOM     24  O   UNL     1     102.272  39.910  31.187  1.00  0.00    -0.490 OA
ATOM     25  C   UNL     1     101.488  39.171  30.254  1.00  0.00     0.278 C 
ENDBRANCH  15  24
BRANCH  17  26
ATOM     26  O   UNL     1     105.008  39.770  30.824  1.00  0.00    -0.504 OA
ATOM     27  H   UNL     1     104.966  39.206  30.034  1.00  0.00     0.293 HD
ENDBRANCH  17  26
ENDBRANCH   2   3
ENDBRANCH   1   2
BRANCH   1  28
ATOM     28  C   UNL     1      98.128  37.442  35.040  1.00  0.00     0.338 C 
ATOM     29  O   UNL     1      97.645  38.557  34.919  1.00  0.00    -0.246 OA
BRANCH  28  30
ATOM     30  C   UNL     1      98.434  36.556  33.889  1.00  0.00     0.064 A 
ATOM     31  C   UNL     1      98.929  35.271  34.108  1.00  0.00     0.066 A 
ATOM     32  C   UNL     1      98.225  37.010  32.586  1.00  0.00     0.020 A 
ATOM     33  C   UNL     1      99.216  34.439  33.026  1.00  0.00     0.161 A 
ATOM     34  C   UNL     1      98.513  36.178  31.504  1.00  0.00     0.051 A 
ATOM     35  C   UNL     1      99.008  34.893  31.724  1.00  0.00     0.160 A 
BRANCH  33  36
ATOM     36  O   UNL     1      99.698  33.186  33.253  1.00  0.00    -0.493 OA
ATOM     37  C   UNL     1      98.739  32.143  33.421  1.00  0.00     0.278 C 
ENDBRANCH  33  36
BRANCH  35  38
ATOM     38  O   UNL     1      99.283  34.090  30.658  1.00  0.00    -0.493 OA
ATOM     39  C   UNL     1     100.441  34.409  29.888  1.00  0.00     0.278 C 
ENDBRANCH  35  38
ENDBRANCH  28  30
ENDBRANCH   1  28
TORSDOF 11
ENDMDL
MODEL 2
REMARK VINA RESULT:    -8.587      2.172      5.152
REMARK INTER + INTRA:         -14.299
REMARK INTER:                 -13.001
REMARK INTRA:                  -1.298
REMARK UNBOUND:                -1.194
REMARK SMILES COc1ccc(C(=O)OC[C@H]2O[C@H]3c4c(cc(O)c(OC)c4O)C(=O)O[C@@H]3[C@@H](O)[C@@H]2O)cc1OC
REMARK SMILES IDX 9 1 10 2 11 3 12 4 13 5 27 6 14 7 30 8 26 9 28 10 15 11
REMARK SMILES IDX 22 12 24 13 16 14 19 15 25 16 17 17 31 18 29 20 23 22 20 24
REMARK SMILES IDX 21 25 18 26 7 28 8 29 6 30 32 31 5 32 33 33 4 34 3 35 34 36
REMARK SMILES IDX 35 37 2 38 1 39
REMARK H PARENT 31 19 29 21 23 23 18 27
REMARK Flexibility Score: inf
ROOT
ATOM      1  O   UNL     1     100.764  36.213  31.125  1.00  0.00    -0.459 OA
ENDROOT
BRANCH   1   2
ATOM      2  C   UNL     1      99.847  37.138  31.680  1.00  0.00     0.268 C 
BRANCH   2   3
ATOM      3  C   UNL     1      99.571  36.740  33.126  1.00  0.00     0.188 C 
ATOM      4  O   UNL     1     100.831  36.721  33.806  1.00  0.00    -0.360 OA
ATOM      5  C   UNL     1     100.705  36.261  35.149  1.00  0.00     0.197 C 
ATOM      6  C   UNL     1      99.862  37.250  35.944  1.00  0.00     0.241 C 
ATOM      7  C   UNL     1     102.038  36.164  35.843  1.00  0.00     0.045 A 
ATOM      8  C   UNL     1      98.603  37.707  33.819  1.00  0.00     0.179 C 
ATOM      9  O   UNL     1      99.712  36.780  37.299  1.00  0.00    -0.453 OA
ATOM     10  C   UNL     1      98.478  37.391  35.310  1.00  0.00     0.189 C 
ATOM     11  C   UNL     1     102.071  36.256  37.244  1.00  0.00     0.073 A 
ATOM     12  C   UNL     1     103.231  35.934  35.146  1.00  0.00     0.168 A 
ATOM     13  C   UNL     1     100.813  36.424  38.015  1.00  0.00     0.339 C 
ATOM     14  C   UNL     1     103.284  36.145  37.932  1.00  0.00     0.066 A 
ATOM     15  C   UNL     1     104.441  35.828  35.835  1.00  0.00     0.203 A 
ATOM     16  O   UNL     1     100.772  36.229  39.223  1.00  0.00    -0.246 OA
ATOM     17  C   UNL     1     104.467  35.938  37.223  1.00  0.00     0.162 A 
BRANCH   8  18
ATOM     18  O   UNL     1      97.306  37.611  33.237  1.00  0.00    -0.387 OA
ATOM     19  H   UNL     1      96.688  37.318  33.927  1.00  0.00     0.211 HD
ENDBRANCH   8  18
BRANCH  10  20
ATOM     20  O   UNL     1      97.790  38.461  35.962  1.00  0.00    -0.386 OA
ATOM     21  H   UNL     1      98.408  38.885  36.581  1.00  0.00     0.211 HD
ENDBRANCH  10  20
BRANCH  12  22
ATOM     22  O   UNL     1     103.249  35.775  33.791  1.00  0.00    -0.504 OA
ATOM     23  H   UNL     1     103.987  35.200  33.534  1.00  0.00     0.293 HD
ENDBRANCH  12  22
BRANCH  15  24
ATOM     24  O   UNL     1     105.600  35.608  35.151  1.00  0.00    -0.490 OA
ATOM     25  C   UNL     1     106.341  36.757  34.748  1.00  0.00     0.278 C 
ENDBRANCH  15  24
BRANCH  17  26
ATOM     26  O   UNL     1     105.643  35.833  37.905  1.00  0.00    -0.504 OA
ATOM     27  H   UNL     1     106.116  35.039  37.603  1.00  0.00     0.293 HD
ENDBRANCH  17  26
ENDBRANCH   2   3
ENDBRANCH   1   2
BRANCH   1  28
ATOM     28  C   UNL     1     100.228  35.080  30.585  1.00  0.00     0.338 C 
ATOM     29  O   UNL     1      99.748  34.981  29.467  1.00  0.00    -0.246 OA
BRANCH  28  30
ATOM     30  C   UNL     1     100.297  33.950  31.546  1.00  0.00     0.064 A 
ATOM     31  C   UNL     1      99.124  33.372  32.030  1.00  0.00     0.066 A 
ATOM     32  C   UNL     1     101.537  33.467  31.964  1.00  0.00     0.020 A 
ATOM     33  C   UNL     1      99.190  32.311  32.933  1.00  0.00     0.161 A 
ATOM     34  C   UNL     1     101.603  32.405  32.867  1.00  0.00     0.051 A 
ATOM     35  C   UNL     1     100.430  31.827  33.351  1.00  0.00     0.160 A 
BRANCH  33  36
ATOM     36  O   UNL     1      98.037  31.754  33.398  1.00  0.00    -0.493 OA
ATOM     37  C   UNL     1      96.827  32.127  32.741  1.00  0.00     0.278 C 
ENDBRANCH  33  36
BRANCH  35  38
ATOM     38  O   UNL     1     100.507  30.790  34.232  1.00  0.00    -0.493 OA
ATOM     39  C   UNL     1     101.813  30.359  34.610  1.00  0.00     0.278 C 
ENDBRANCH  35  38
ENDBRANCH  28  30
ENDBRANCH   1  28
TORSDOF 11
ENDMDL
MODEL 3
REMARK VINA RESULT:    -8.567      1.994      6.594
REMARK INTER + INTRA:         -14.268
REMARK INTER:                 -12.860
REMARK INTRA:                  -1.409
REMARK UNBOUND:                -1.194
REMARK SMILES COc1ccc(C(=O)OC[C@H]2O[C@H]3c4c(cc(O)c(OC)c4O)C(=O)O[C@@H]3[C@@H](O)[C@@H]2O)cc1OC
REMARK SMILES IDX 9 1 10 2 11 3 12 4 13 5 27 6 14 7 30 8 26 9 28 10 15 11
REMARK SMILES IDX 22 12 24 13 16 14 19 15 25 16 17 17 31 18 29 20 23 22 20 24
REMARK SMILES IDX 21 25 18 26 7 28 8 29 6 30 32 31 5 32 33 33 4 34 3 35 34 36
REMARK SMILES IDX 35 37 2 38 1 39
REMARK H PARENT 31 19 29 21 23 23 18 27
REMARK Flexibility Score: inf
ROOT
ATOM      1  O   UNL     1     101.597  37.170  37.877  1.00  0.00    -0.459 OA
ENDROOT
BRANCH   1   2
ATOM      2  C   UNL     1     100.313  36.692  37.522  1.00  0.00     0.268 C 
BRANCH   2   3
ATOM      3  C   UNL     1      99.978  37.191  36.120  1.00  0.00     0.188 C 
ATOM      4  O   UNL     1     100.311  36.139  35.207  1.00  0.00    -0.360 OA
ATOM      5  C   UNL     1     100.132  36.534  33.850  1.00  0.00     0.197 C 
ATOM      6  C   UNL     1      98.655  36.805  33.593  1.00  0.00     0.241 C 
ATOM      7  C   UNL     1     100.555  35.458  32.885  1.00  0.00     0.045 A 
ATOM      8  C   UNL     1      98.501  37.576  35.979  1.00  0.00     0.179 C 
ATOM      9  O   UNL     1      98.470  37.228  32.227  1.00  0.00    -0.453 OA
ATOM     10  C   UNL     1      98.151  37.905  34.527  1.00  0.00     0.189 C 
ATOM     11  C   UNL     1      99.979  35.444  31.605  1.00  0.00     0.073 A 
ATOM     12  C   UNL     1     101.537  34.511  33.202  1.00  0.00     0.168 A 
ATOM     13  C   UNL     1      98.991  36.482  31.215  1.00  0.00     0.339 C 
ATOM     14  C   UNL     1     100.362  34.479  30.667  1.00  0.00     0.066 A 
ATOM     15  C   UNL     1     101.913  33.546  32.266  1.00  0.00     0.203 A 
ATOM     16  O   UNL     1      98.685  36.667  30.044  1.00  0.00    -0.246 OA
ATOM     17  C   UNL     1     101.324  33.528  31.004  1.00  0.00     0.162 A 
BRANCH   8  18
ATOM     18  O   UNL     1      98.209  38.722  36.774  1.00  0.00    -0.387 OA
ATOM     19  H   UNL     1      97.288  38.652  37.076  1.00  0.00     0.211 HD
ENDBRANCH   8  18
BRANCH  10  20
ATOM     20  O   UNL     1      96.731  37.995  34.393  1.00  0.00    -0.386 OA
ATOM     21  H   UNL     1      96.457  37.401  33.674  1.00  0.00     0.211 HD
ENDBRANCH  10  20
BRANCH  12  22
ATOM     22  O   UNL     1     102.174  34.517  34.409  1.00  0.00    -0.504 OA
ATOM     23  H   UNL     1     101.940  35.319  34.904  1.00  0.00     0.293 HD
ENDBRANCH  12  22
BRANCH  15  24
ATOM     24  O   UNL     1     102.867  32.623  32.582  1.00  0.00    -0.490 OA
ATOM     25  C   UNL     1     102.423  31.427  33.217  1.00  0.00     0.278 C 
ENDBRANCH  15  24
BRANCH  17  26
ATOM     26  O   UNL     1     101.688  32.592  30.083  1.00  0.00    -0.504 OA
ATOM     27  H   UNL     1     102.645  32.655  29.926  1.00  0.00     0.293 HD
ENDBRANCH  17  26
ENDBRANCH   2   3
ENDBRANCH   1   2
BRANCH   1  28
ATOM     28  C   UNL     1     102.622  36.274  37.787  1.00  0.00     0.338 C 
ATOM     29  O   UNL     1     102.605  35.128  38.208  1.00  0.00    -0.246 OA
BRANCH  28  30
ATOM     30  C   UNL     1     103.793  36.872  37.098  1.00  0.00     0.064 A 
ATOM     31  C   UNL     1     103.717  37.194  35.743  1.00  0.00     0.066 A 
ATOM     32  C   UNL     1     104.970  37.112  37.807  1.00  0.00     0.020 A 
ATOM     33  C   UNL     1     104.818  37.756  35.096  1.00  0.00     0.161 A 
ATOM     34  C   UNL     1     106.071  37.674  37.160  1.00  0.00     0.051 A 
ATOM     35  C   UNL     1     105.995  37.996  35.805  1.00  0.00     0.160 A 
BRANCH  33  36
ATOM     36  O   UNL     1     104.730  38.067  33.773  1.00  0.00    -0.493 OA
ATOM     37  C   UNL     1     103.480  38.572  33.308  1.00  0.00     0.278 C 
ENDBRANCH  33  36
BRANCH  35  38
ATOM     38  O   UNL     1     107.076  38.546  35.185  1.00  0.00    -0.493 OA
ATOM     39  C   UNL     1     108.138  37.662  34.832  1.00  0.00     0.278 C 
ENDBRANCH  35  38
ENDBRANCH  28  30
ENDBRANCH   1  28
TORSDOF 11
ENDMDL
MODEL 4
REMARK VINA RESULT:    -8.478      1.910      4.404
REMARK INTER + INTRA:         -14.134
REMARK INTER:                 -12.870
REMARK INTRA:                  -1.263
REMARK UNBOUND:                -1.194
REMARK SMILES COc1ccc(C(=O)OC[C@H]2O[C@H]3c4c(cc(O)c(OC)c4O)C(=O)O[C@@H]3[C@@H](O)[C@@H]2O)cc1OC
REMARK SMILES IDX 9 1 10 2 11 3 12 4 13 5 27 6 14 7 30 8 26 9 28 10 15 11
REMARK SMILES IDX 22 12 24 13 16 14 19 15 25 16 17 17 31 18 29 20 23 22 20 24
REMARK SMILES IDX 21 25 18 26 7 28 8 29 6 30 32 31 5 32 33 33 4 34 3 35 34 36
REMARK SMILES IDX 35 37 2 38 1 39
REMARK H PARENT 31 19 29 21 23 23 18 27
REMARK Flexibility Score: inf
ROOT
ATOM      1  O   UNL     1      98.931  37.581  31.397  1.00  0.00    -0.459 OA
ENDROOT
BRANCH   1   2
ATOM      2  C   UNL     1      99.235  38.488  32.440  1.00  0.00     0.268 C 
BRANCH   2   3
ATOM      3  C   UNL     1      99.277  37.718  33.757  1.00  0.00     0.188 C 
ATOM      4  O   UNL     1     100.654  37.610  34.138  1.00  0.00    -0.360 OA
ATOM      5  C   UNL     1     100.822  36.818  35.311  1.00  0.00     0.197 C 
ATOM      6  C   UNL     1     100.155  37.513  36.491  1.00  0.00     0.241 C 
ATOM      7  C   UNL     1     102.273  36.637  35.670  1.00  0.00     0.045 A 
ATOM      8  C   UNL     1      98.468  38.410  34.860  1.00  0.00     0.179 C 
ATOM      9  O   UNL     1     100.302  36.706  37.676  1.00  0.00    -0.453 OA
ATOM     10  C   UNL     1      98.667  37.718  36.209  1.00  0.00     0.189 C 
ATOM     11  C   UNL     1     102.601  36.371  37.009  1.00  0.00     0.073 A 
ATOM     12  C   UNL     1     103.293  36.671  34.711  1.00  0.00     0.168 A 
ATOM     13  C   UNL     1     101.534  36.254  38.035  1.00  0.00     0.339 C 
ATOM     14  C   UNL     1     103.934  36.170  37.384  1.00  0.00     0.066 A 
ATOM     15  C   UNL     1     104.622  36.475  35.088  1.00  0.00     0.203 A 
ATOM     16  O   UNL     1     101.753  35.756  39.132  1.00  0.00    -0.246 OA
ATOM     17  C   UNL     1     104.942  36.230  36.422  1.00  0.00     0.162 A 
BRANCH   8  18
ATOM     18  O   UNL     1      97.078  38.379  34.548  1.00  0.00    -0.387 OA
ATOM     19  H   UNL     1      96.832  37.458  34.360  1.00  0.00     0.211 HD
ENDBRANCH   8  18
BRANCH  10  20
ATOM     20  O   UNL     1      98.121  38.539  37.244  1.00  0.00    -0.386 OA
ATOM     21  H   UNL     1      97.217  38.789  36.987  1.00  0.00     0.211 HD
ENDBRANCH  10  20
BRANCH  12  22
ATOM     22  O   UNL     1     103.023  36.863  33.387  1.00  0.00    -0.504 OA
ATOM     23  H   UNL     1     103.433  36.159  32.859  1.00  0.00     0.293 HD
ENDBRANCH  12  22
BRANCH  15  24
ATOM     24  O   UNL     1     105.612  36.514  34.151  1.00  0.00    -0.490 OA
ATOM     25  C   UNL     1     106.182  37.788  33.865  1.00  0.00     0.278 C 
ENDBRANCH  15  24
BRANCH  17  26
ATOM     26  O   UNL     1     106.237  36.033  36.800  1.00  0.00    -0.504 OA
ATOM     27  H   UNL     1     106.323  35.149  37.193  1.00  0.00     0.293 HD
ENDBRANCH  17  26
ENDBRANCH   2   3
ENDBRANCH   1   2
BRANCH   1  28
ATOM     28  C   UNL     1      99.952  36.776  30.980  1.00  0.00     0.338 C 
ATOM     29  O   UNL     1     101.128  37.096  30.909  1.00  0.00    -0.246 OA
BRANCH  28  30
ATOM     30  C   UNL     1      99.449  35.428  30.612  1.00  0.00     0.064 A 
ATOM     31  C   UNL     1      99.003  34.555  31.604  1.00  0.00     0.066 A 
ATOM     32  C   UNL     1      99.423  35.036  29.274  1.00  0.00     0.020 A 
ATOM     33  C   UNL     1      98.531  33.288  31.258  1.00  0.00     0.161 A 
ATOM     34  C   UNL     1      98.951  33.769  28.928  1.00  0.00     0.051 A 
ATOM     35  C   UNL     1      98.505  32.896  29.920  1.00  0.00     0.160 A 
BRANCH  33  36
ATOM     36  O   UNL     1      98.098  32.444  32.236  1.00  0.00    -0.493 OA
ATOM     37  C   UNL     1      98.925  32.314  33.391  1.00  0.00     0.278 C 
ENDBRANCH  33  36
BRANCH  35  38
ATOM     38  O   UNL     1      98.046  31.662  29.569  1.00  0.00    -0.493 OA
ATOM     39  C   UNL     1      97.033  31.610  28.567  1.00  0.00     0.278 C 
ENDBRANCH  35  38
ENDBRANCH  28  30
ENDBRANCH   1  28
TORSDOF 11
ENDMDL
MODEL 5
REMARK VINA RESULT:    -8.393      2.302      5.563
REMARK INTER + INTRA:         -14.002
REMARK INTER:                 -12.965
REMARK INTRA:                  -1.038
REMARK UNBOUND:                -1.194
REMARK SMILES COc1ccc(C(=O)OC[C@H]2O[C@H]3c4c(cc(O)c(OC)c4O)C(=O)O[C@@H]3[C@@H](O)[C@@H]2O)cc1OC
REMARK SMILES IDX 9 1 10 2 11 3 12 4 13 5 27 6 14 7 30 8 26 9 28 10 15 11
REMARK SMILES IDX 22 12 24 13 16 14 19 15 25 16 17 17 31 18 29 20 23 22 20 24
REMARK SMILES IDX 21 25 18 26 7 28 8 29 6 30 32 31 5 32 33 33 4 34 3 35 34 36
REMARK SMILES IDX 35 37 2 38 1 39
REMARK H PARENT 31 19 29 21 23 23 18 27
REMARK Flexibility Score: inf
ROOT
ATOM      1  O   UNL     1      99.393  35.838  30.557  1.00  0.00    -0.459 OA
ENDROOT
BRANCH   1   2
ATOM      2  C   UNL     1     100.167  36.648  31.423  1.00  0.00     0.268 C 
BRANCH   2   3
ATOM      3  C   UNL     1      99.774  36.333  32.863  1.00  0.00     0.188 C 
ATOM      4  O   UNL     1     100.947  36.506  33.667  1.00  0.00    -0.360 OA
ATOM      5  C   UNL     1     100.721  36.139  35.026  1.00  0.00     0.197 C 
ATOM      6  C   UNL     1      99.697  37.084  35.641  1.00  0.00     0.241 C 
ATOM      7  C   UNL     1     101.972  36.245  35.858  1.00  0.00     0.045 A 
ATOM      8  C   UNL     1      98.641  37.234  33.366  1.00  0.00     0.179 C 
ATOM      9  O   UNL     1      99.447  36.704  37.009  1.00  0.00    -0.453 OA
ATOM     10  C   UNL     1      98.385  37.021  34.859  1.00  0.00     0.189 C 
ATOM     11  C   UNL     1     101.839  36.446  37.241  1.00  0.00     0.073 A 
ATOM     12  C   UNL     1     103.252  36.098  35.309  1.00  0.00     0.168 A 
ATOM     13  C   UNL     1     100.493  36.530  37.862  1.00  0.00     0.339 C 
ATOM     14  C   UNL     1     102.974  36.524  38.056  1.00  0.00     0.066 A 
ATOM     15  C   UNL     1     104.382  36.181  36.124  1.00  0.00     0.203 A 
ATOM     16  O   UNL     1     100.338  36.423  39.072  1.00  0.00    -0.246 OA
ATOM     17  C   UNL     1     104.243  36.398  37.493  1.00  0.00     0.162 A 
BRANCH   8  18
ATOM     18  O   UNL     1      97.433  36.950  32.666  1.00  0.00    -0.387 OA
ATOM     19  H   UNL     1      96.697  37.013  33.298  1.00  0.00     0.211 HD
ENDBRANCH   8  18
BRANCH  10  20
ATOM     20  O   UNL     1      97.522  38.053  35.341  1.00  0.00    -0.386 OA
ATOM     21  H   UNL     1      97.537  38.030  36.313  1.00  0.00     0.211 HD
ENDBRANCH  10  20
BRANCH  12  22
ATOM     22  O   UNL     1     103.436  35.839  33.981  1.00  0.00    -0.504 OA
ATOM     23  H   UNL     1     102.603  35.966  33.500  1.00  0.00     0.293 HD
ENDBRANCH  12  22
BRANCH  15  24
ATOM     24  O   UNL     1     105.626  36.040  35.583  1.00  0.00    -0.490 OA
ATOM     25  C   UNL     1     106.282  37.231  35.153  1.00  0.00     0.278 C 
ENDBRANCH  15  24
BRANCH  17  26
ATOM     26  O   UNL     1     105.340  36.477  38.297  1.00  0.00    -0.504 OA
ATOM     27  H   UNL     1     105.846  37.274  38.067  1.00  0.00     0.293 HD
ENDBRANCH  17  26
ENDBRANCH   2   3
ENDBRANCH   1   2
BRANCH   1  28
ATOM     28  C   UNL     1      99.934  34.634  30.212  1.00  0.00     0.338 C 
ATOM     29  O   UNL     1     101.084  34.447  29.849  1.00  0.00    -0.246 OA
BRANCH  28  30
ATOM     30  C   UNL     1      98.930  33.547  30.334  1.00  0.00     0.064 A 
ATOM     31  C   UNL     1      98.508  32.856  29.198  1.00  0.00     0.066 A 
ATOM     32  C   UNL     1      98.409  33.217  31.585  1.00  0.00     0.020 A 
ATOM     33  C   UNL     1      97.565  31.835  29.313  1.00  0.00     0.161 A 
ATOM     34  C   UNL     1      97.465  32.195  31.699  1.00  0.00     0.051 A 
ATOM     35  C   UNL     1      97.044  31.504  30.564  1.00  0.00     0.160 A 
BRANCH  33  36
ATOM     36  O   UNL     1      97.161  31.167  28.196  1.00  0.00    -0.493 OA
ATOM     37  C   UNL     1      96.096  31.746  27.445  1.00  0.00     0.278 C 
ENDBRANCH  33  36
BRANCH  35  38
ATOM     38  O   UNL     1      96.122  30.508  30.689  1.00  0.00    -0.493 OA
ATOM     39  C   UNL     1      95.862  30.029  32.007  1.00  0.00     0.278 C 
ENDBRANCH  35  38
ENDBRANCH  28  30
ENDBRANCH   1  28
TORSDOF 11
ENDMDL
MODEL 6
REMARK VINA RESULT:    -8.333      2.156      4.906
REMARK INTER + INTRA:         -13.911
REMARK INTER:                 -12.646
REMARK INTRA:                  -1.264
REMARK UNBOUND:                -1.194
REMARK SMILES COc1ccc(C(=O)OC[C@H]2O[C@H]3c4c(cc(O)c(OC)c4O)C(=O)O[C@@H]3[C@@H](O)[C@@H]2O)cc1OC
REMARK SMILES IDX 9 1 10 2 11 3 12 4 13 5 27 6 14 7 30 8 26 9 28 10 15 11
REMARK SMILES IDX 22 12 24 13 16 14 19 15 25 16 17 17 31 18 29 20 23 22 20 24
REMARK SMILES IDX 21 25 18 26 7 28 8 29 6 30 32 31 5 32 33 33 4 34 3 35 34 36
REMARK SMILES IDX 35 37 2 38 1 39
REMARK H PARENT 31 19 29 21 23 23 18 27
REMARK Flexibility Score: inf
ROOT
ATOM      1  O   UNL     1     100.630  37.434  31.352  1.00  0.00    -0.459 OA
ENDROOT
BRANCH   1   2
ATOM      2  C   UNL     1     100.079  38.384  32.245  1.00  0.00     0.268 C 
BRANCH   2   3
ATOM      3  C   UNL     1      99.794  37.693  33.575  1.00  0.00     0.188 C 
ATOM      4  O   UNL     1     101.056  37.470  34.214  1.00  0.00    -0.360 OA
ATOM      5  C   UNL     1     100.917  36.735  35.427  1.00  0.00     0.197 C 
ATOM      6  C   UNL     1     100.125  37.563  36.431  1.00  0.00     0.241 C 
ATOM      7  C   UNL     1     102.249  36.431  36.062  1.00  0.00     0.045 A 
ATOM      8  C   UNL     1      98.876  38.527  34.477  1.00  0.00     0.179 C 
ATOM      9  O   UNL     1      99.962  36.816  37.654  1.00  0.00    -0.453 OA
ATOM     10  C   UNL     1      98.746  37.900  35.866  1.00  0.00     0.189 C 
ATOM     11  C   UNL     1     102.294  36.214  37.448  1.00  0.00     0.073 A 
ATOM     12  C   UNL     1     103.425  36.306  35.312  1.00  0.00     0.168 A 
ATOM     13  C   UNL     1     101.050  36.265  38.257  1.00  0.00     0.339 C 
ATOM     14  C   UNL     1     103.505  35.902  38.076  1.00  0.00     0.066 A 
ATOM     15  C   UNL     1     104.633  36.000  35.942  1.00  0.00     0.203 A 
ATOM     16  O   UNL     1     101.007  35.813  39.394  1.00  0.00    -0.246 OA
ATOM     17  C   UNL     1     104.673  35.803  37.320  1.00  0.00     0.162 A 
BRANCH   8  18
ATOM     18  O   UNL     1      97.572  38.618  33.909  1.00  0.00    -0.387 OA
ATOM     19  H   UNL     1      97.639  38.397  32.966  1.00  0.00     0.211 HD
ENDBRANCH   8  18
BRANCH  10  20
ATOM     20  O   UNL     1      98.112  38.831  36.745  1.00  0.00    -0.386 OA
ATOM     21  H   UNL     1      97.277  39.114  36.336  1.00  0.00     0.211 HD
ENDBRANCH  10  20
BRANCH  12  22
ATOM     22  O   UNL     1     103.427  36.446  33.954  1.00  0.00    -0.504 OA
ATOM     23  H   UNL     1     102.528  36.633  33.639  1.00  0.00     0.293 HD
ENDBRANCH  12  22
BRANCH  15  24
ATOM     24  O   UNL     1     105.776  35.883  35.207  1.00  0.00    -0.490 OA
ATOM     25  C   UNL     1     106.564  37.061  35.047  1.00  0.00     0.278 C 
ENDBRANCH  15  24
BRANCH  17  26
ATOM     26  O   UNL     1     105.847  35.500  37.943  1.00  0.00    -0.504 OA
ATOM     27  H   UNL     1     106.137  34.616  37.663  1.00  0.00     0.293 HD
ENDBRANCH  17  26
ENDBRANCH   2   3
ENDBRANCH   1   2
BRANCH   1  28
ATOM     28  C   UNL     1      99.779  36.467  30.899  1.00  0.00     0.338 C 
ATOM     29  O   UNL     1      98.650  36.653  30.475  1.00  0.00    -0.246 OA
BRANCH  28  30
ATOM     30  C   UNL     1     100.407  35.125  30.986  1.00  0.00     0.064 A 
ATOM     31  C   UNL     1     100.850  34.639  32.217  1.00  0.00     0.066 A 
ATOM     32  C   UNL     1     100.553  34.349  29.837  1.00  0.00     0.020 A 
ATOM     33  C   UNL     1     101.440  33.378  32.297  1.00  0.00     0.161 A 
ATOM     34  C   UNL     1     101.143  33.087  29.918  1.00  0.00     0.051 A 
ATOM     35  C   UNL     1     101.586  32.601  31.148  1.00  0.00     0.160 A 
BRANCH  33  36
ATOM     36  O   UNL     1     101.868  32.915  33.505  1.00  0.00    -0.493 OA
ATOM     37  C   UNL     1     103.265  33.017  33.779  1.00  0.00     0.278 C 
ENDBRANCH  33  36
BRANCH  35  38
ATOM     38  O   UNL     1     102.159  31.367  31.214  1.00  0.00    -0.493 OA
ATOM     39  C   UNL     1     102.334  30.667  29.984  1.00  0.00     0.278 C 
ENDBRANCH  35  38
ENDBRANCH  28  30
ENDBRANCH   1  28
TORSDOF 11
ENDMDL
MODEL 7
REMARK VINA RESULT:    -8.250      2.257      5.365
REMARK INTER + INTRA:         -13.785
REMARK INTER:                 -12.725
REMARK INTRA:                  -1.060
REMARK UNBOUND:                -1.194
REMARK SMILES COc1ccc(C(=O)OC[C@H]2O[C@H]3c4c(cc(O)c(OC)c4O)C(=O)O[C@@H]3[C@@H](O)[C@@H]2O)cc1OC
REMARK SMILES IDX 9 1 10 2 11 3 12 4 13 5 27 6 14 7 30 8 26 9 28 10 15 11
REMARK SMILES IDX 22 12 24 13 16 14 19 15 25 16 17 17 31 18 29 20 23 22 20 24
REMARK SMILES IDX 21 25 18 26 7 28 8 29 6 30 32 31 5 32 33 33 4 34 3 35 34 36
REMARK SMILES IDX 35 37 2 38 1 39
REMARK H PARENT 31 19 29 21 23 23 18 27
REMARK Flexibility Score: inf
ROOT
ATOM      1  O   UNL     1      99.187  35.849  30.759  1.00  0.00    -0.459 OA
ENDROOT
BRANCH   1   2
ATOM      2  C   UNL     1      99.926  36.712  31.603  1.00  0.00     0.268 C 
BRANCH   2   3
ATOM      3  C   UNL     1      99.577  36.390  33.053  1.00  0.00     0.188 C 
ATOM      4  O   UNL     1     100.771  36.570  33.824  1.00  0.00    -0.360 OA
ATOM      5  C   UNL     1     100.586  36.198  35.187  1.00  0.00     0.197 C 
ATOM      6  C   UNL     1      99.574  37.134  35.834  1.00  0.00     0.241 C 
ATOM      7  C   UNL     1     101.859  36.310  35.983  1.00  0.00     0.045 A 
ATOM      8  C   UNL     1      98.452  37.283  33.590  1.00  0.00     0.179 C 
ATOM      9  O   UNL     1      99.365  36.750  37.207  1.00  0.00    -0.453 OA
ATOM     10  C   UNL     1      98.240  37.064  35.089  1.00  0.00     0.189 C 
ATOM     11  C   UNL     1     101.765  36.506  37.370  1.00  0.00     0.073 A 
ATOM     12  C   UNL     1     103.124  36.173  35.398  1.00  0.00     0.168 A 
ATOM     13  C   UNL     1     100.437  36.580  38.029  1.00  0.00     0.339 C 
ATOM     14  C   UNL     1     102.922  36.590  38.153  1.00  0.00     0.066 A 
ATOM     15  C   UNL     1     104.277  36.261  36.180  1.00  0.00     0.203 A 
ATOM     16  O   UNL     1     100.317  36.469  39.243  1.00  0.00    -0.246 OA
ATOM     17  C   UNL     1     104.175  36.474  37.553  1.00  0.00     0.162 A 
BRANCH   8  18
ATOM     18  O   UNL     1      97.227  36.993  32.924  1.00  0.00    -0.387 OA
ATOM     19  H   UNL     1      97.422  36.393  32.184  1.00  0.00     0.211 HD
ENDBRANCH   8  18
BRANCH  10  20
ATOM     20  O   UNL     1      97.385  38.089  35.599  1.00  0.00    -0.386 OA
ATOM     21  H   UNL     1      96.970  37.760  36.414  1.00  0.00     0.211 HD
ENDBRANCH  10  20
BRANCH  12  22
ATOM     22  O   UNL     1     103.272  35.919  34.064  1.00  0.00    -0.504 OA
ATOM     23  H   UNL     1     102.645  36.455  33.553  1.00  0.00     0.293 HD
ENDBRANCH  12  22
BRANCH  15  24
ATOM     24  O   UNL     1     105.506  36.131  35.604  1.00  0.00    -0.490 OA
ATOM     25  C   UNL     1     106.129  37.323  35.133  1.00  0.00     0.278 C 
ENDBRANCH  15  24
BRANCH  17  26
ATOM     26  O   UNL     1     105.295  36.558  38.326  1.00  0.00    -0.504 OA
ATOM     27  H   UNL     1     105.450  35.701  38.756  1.00  0.00     0.293 HD
ENDBRANCH  17  26
ENDBRANCH   2   3
ENDBRANCH   1   2
BRANCH   1  28
ATOM     28  C   UNL     1      99.800  34.683  30.402  1.00  0.00     0.338 C 
ATOM     29  O   UNL     1     100.983  34.554  30.129  1.00  0.00    -0.246 OA
BRANCH  28  30
ATOM     30  C   UNL     1      98.832  33.558  30.383  1.00  0.00     0.064 A 
ATOM     31  C   UNL     1      98.153  33.201  31.549  1.00  0.00     0.066 A 
ATOM     32  C   UNL     1      98.600  32.858  29.199  1.00  0.00     0.020 A 
ATOM     33  C   UNL     1      97.244  32.143  31.531  1.00  0.00     0.161 A 
ATOM     34  C   UNL     1      97.691  31.799  29.182  1.00  0.00     0.051 A 
ATOM     35  C   UNL     1      97.013  31.443  30.347  1.00  0.00     0.160 A 
BRANCH  33  36
ATOM     36  O   UNL     1      96.588  31.804  32.675  1.00  0.00    -0.493 OA
ATOM     37  C   UNL     1      95.345  32.458  32.927  1.00  0.00     0.278 C 
ENDBRANCH  33  36
BRANCH  35  38
ATOM     38  O   UNL     1      96.126  30.408  30.316  1.00  0.00    -0.493 OA
ATOM     39  C   UNL     1      96.306  29.432  29.292  1.00  0.00     0.278 C 
ENDBRANCH  35  38
ENDBRANCH  28  30
ENDBRANCH   1  28
TORSDOF 11
ENDMDL
MODEL 8
REMARK VINA RESULT:    -7.971      2.353      6.852
REMARK INTER + INTRA:         -13.359
REMARK INTER:                 -12.162
REMARK INTRA:                  -1.197
REMARK UNBOUND:                -1.194
REMARK SMILES COc1ccc(C(=O)OC[C@H]2O[C@H]3c4c(cc(O)c(OC)c4O)C(=O)O[C@@H]3[C@@H](O)[C@@H]2O)cc1OC
REMARK SMILES IDX 9 1 10 2 11 3 12 4 13 5 27 6 14 7 30 8 26 9 28 10 15 11
REMARK SMILES IDX 22 12 24 13 16 14 19 15 25 16 17 17 31 18 29 20 23 22 20 24
REMARK SMILES IDX 21 25 18 26 7 28 8 29 6 30 32 31 5 32 33 33 4 34 3 35 34 36
REMARK SMILES IDX 35 37 2 38 1 39
REMARK H PARENT 31 19 29 21 23 23 18 27
REMARK Flexibility Score: inf
ROOT
ATOM      1  O   UNL     1     103.940  35.905  38.130  1.00  0.00    -0.459 OA
ENDROOT
BRANCH   1   2
ATOM      2  C   UNL     1     102.547  35.825  37.895  1.00  0.00     0.268 C 
BRANCH   2   3
ATOM      3  C   UNL     1     102.236  36.521  36.574  1.00  0.00     0.188 C 
ATOM      4  O   UNL     1     102.059  35.497  35.589  1.00  0.00    -0.360 OA
ATOM      5  C   UNL     1     101.861  36.040  34.285  1.00  0.00     0.197 C 
ATOM      6  C   UNL     1     100.555  36.823  34.257  1.00  0.00     0.241 C 
ATOM      7  C   UNL     1     101.753  34.966  33.235  1.00  0.00     0.045 A 
ATOM      8  C   UNL     1     100.984  37.403  36.664  1.00  0.00     0.179 C 
ATOM      9  O   UNL     1     100.360  37.393  32.947  1.00  0.00    -0.453 OA
ATOM     10  C   UNL     1     100.593  37.949  35.290  1.00  0.00     0.189 C 
ATOM     11  C   UNL     1     101.052  35.256  32.053  1.00  0.00     0.073 A 
ATOM     12  C   UNL     1     102.368  33.716  33.374  1.00  0.00     0.168 A 
ATOM     13  C   UNL     1     100.453  36.599  31.846  1.00  0.00     0.339 C 
ATOM     14  C   UNL     1     100.948  34.298  31.039  1.00  0.00     0.066 A 
ATOM     15  C   UNL     1     102.259  32.760  32.362  1.00  0.00     0.203 A 
ATOM     16  O   UNL     1     100.088  36.973  30.739  1.00  0.00    -0.246 OA
ATOM     17  C   UNL     1     101.548  33.049  31.200  1.00  0.00     0.162 A 
BRANCH   8  18
ATOM     18  O   UNL     1     101.218  38.510  37.529  1.00  0.00    -0.387 OA
ATOM     19  H   UNL     1     101.050  39.324  37.027  1.00  0.00     0.211 HD
ENDBRANCH   8  18
BRANCH  10  20
ATOM     20  O   UNL     1      99.292  38.533  35.368  1.00  0.00    -0.386 OA
ATOM     21  H   UNL     1      98.997  38.491  36.294  1.00  0.00     0.211 HD
ENDBRANCH  10  20
BRANCH  12  22
ATOM     22  O   UNL     1     103.114  33.404  34.474  1.00  0.00    -0.504 OA
ATOM     23  H   UNL     1     103.136  34.158  35.085  1.00  0.00     0.293 HD
ENDBRANCH  12  22
BRANCH  15  24
ATOM     24  O   UNL     1     102.858  31.543  32.505  1.00  0.00    -0.490 OA
ATOM     25  C   UNL     1     102.081  30.506  33.099  1.00  0.00     0.278 C 
ENDBRANCH  15  24
BRANCH  17  26
ATOM     26  O   UNL     1     101.439  32.124  30.206  1.00  0.00    -0.504 OA
ATOM     27  H   UNL     1     102.287  31.660  30.109  1.00  0.00     0.293 HD
ENDBRANCH  17  26
ENDBRANCH   2   3
ENDBRANCH   1   2
BRANCH   1  28
ATOM     28  C   UNL     1     104.542  37.084  37.799  1.00  0.00     0.338 C 
ATOM     29  O   UNL     1     104.229  38.187  38.220  1.00  0.00    -0.246 OA
BRANCH  28  30
ATOM     30  C   UNL     1     105.652  36.863  36.839  1.00  0.00     0.064 A 
ATOM     31  C   UNL     1     105.883  37.781  35.814  1.00  0.00     0.066 A 
ATOM     32  C   UNL     1     106.465  35.736  36.962  1.00  0.00     0.020 A 
ATOM     33  C   UNL     1     106.926  37.572  34.912  1.00  0.00     0.161 A 
ATOM     34  C   UNL     1     107.509  35.527  36.060  1.00  0.00     0.051 A 
ATOM     35  C   UNL     1     107.739  36.445  35.035  1.00  0.00     0.160 A 
BRANCH  33  36
ATOM     36  O   UNL     1     107.142  38.476  33.916  1.00  0.00    -0.493 OA
ATOM     37  C   UNL     1     106.285  38.400  32.777  1.00  0.00     0.278 C 
ENDBRANCH  33  36
BRANCH  35  38
ATOM     38  O   UNL     1     108.762  36.230  34.161  1.00  0.00    -0.493 OA
ATOM     39  C   UNL     1     109.008  34.881  33.770  1.00  0.00     0.278 C 
ENDBRANCH  35  38
ENDBRANCH  28  30
ENDBRANCH   1  28
TORSDOF 11
ENDMDL
MODEL 9
REMARK VINA RESULT:    -7.850      2.238      7.257
REMARK INTER + INTRA:         -13.175
REMARK INTER:                 -11.805
REMARK INTRA:                  -1.370
REMARK UNBOUND:                -1.194
REMARK SMILES COc1ccc(C(=O)OC[C@H]2O[C@H]3c4c(cc(O)c(OC)c4O)C(=O)O[C@@H]3[C@@H](O)[C@@H]2O)cc1OC
REMARK SMILES IDX 9 1 10 2 11 3 12 4 13 5 27 6 14 7 30 8 26 9 28 10 15 11
REMARK SMILES IDX 22 12 24 13 16 14 19 15 25 16 17 17 31 18 29 20 23 22 20 24
REMARK SMILES IDX 21 25 18 26 7 28 8 29 6 30 32 31 5 32 33 33 4 34 3 35 34 36
REMARK SMILES IDX 35 37 2 38 1 39
REMARK H PARENT 31 19 29 21 23 23 18 27
REMARK Flexibility Score: inf
ROOT
ATOM      1  O   UNL     1     103.037  37.102  33.588  1.00  0.00    -0.459 OA
ENDROOT
BRANCH   1   2
ATOM      2  C   UNL     1     102.312  37.861  32.639  1.00  0.00     0.268 C 
BRANCH   2   3
ATOM      3  C   UNL     1     101.122  37.034  32.161  1.00  0.00     0.188 C 
ATOM      4  O   UNL     1     101.253  35.732  32.743  1.00  0.00    -0.360 OA
ATOM      5  C   UNL     1     100.244  34.838  32.282  1.00  0.00     0.197 C 
ATOM      6  C   UNL     1      98.881  35.328  32.754  1.00  0.00     0.241 C 
ATOM      7  C   UNL     1     100.424  33.447  32.830  1.00  0.00     0.045 A 
ATOM      8  C   UNL     1      99.782  37.665  32.555  1.00  0.00     0.179 C 
ATOM      9  O   UNL     1      97.852  34.441  32.272  1.00  0.00    -0.453 OA
ATOM     10  C   UNL     1      98.614  36.736  32.221  1.00  0.00     0.189 C 
ATOM     11  C   UNL     1      99.296  32.617  32.930  1.00  0.00     0.073 A 
ATOM     12  C   UNL     1     101.679  32.941  33.192  1.00  0.00     0.168 A 
ATOM     13  C   UNL     1      97.966  33.101  32.483  1.00  0.00     0.339 C 
ATOM     14  C   UNL     1      99.422  31.308  33.409  1.00  0.00     0.066 A 
ATOM     15  C   UNL     1     101.800  31.636  33.674  1.00  0.00     0.203 A 
ATOM     16  O   UNL     1      97.034  32.329  32.294  1.00  0.00    -0.246 OA
ATOM     17  C   UNL     1     100.674  30.824  33.786  1.00  0.00     0.162 A 
BRANCH   8  18
ATOM     18  O   UNL     1      99.585  38.890  31.854  1.00  0.00    -0.387 OA
ATOM     19  H   UNL     1     100.183  39.554  32.237  1.00  0.00     0.211 HD
ENDBRANCH   8  18
BRANCH  10  20
ATOM     20  O   UNL     1      97.425  37.233  32.838  1.00  0.00    -0.386 OA
ATOM     21  H   UNL     1      96.686  36.657  32.581  1.00  0.00     0.211 HD
ENDBRANCH  10  20
BRANCH  12  22
ATOM     22  O   UNL     1     102.816  33.683  33.057  1.00  0.00    -0.504 OA
ATOM     23  H   UNL     1     103.588  33.099  32.985  1.00  0.00     0.293 HD
ENDBRANCH  12  22
BRANCH  15  24
ATOM     24  O   UNL     1     103.024  31.149  34.028  1.00  0.00    -0.490 OA
ATOM     25  C   UNL     1     103.763  30.463  33.020  1.00  0.00     0.278 C 
ENDBRANCH  15  24
BRANCH  17  26
ATOM     26  O   UNL     1     100.783  29.548  34.252  1.00  0.00    -0.504 OA
ATOM     27  H   UNL     1     101.621  29.456  34.735  1.00  0.00     0.293 HD
ENDBRANCH  17  26
ENDBRANCH   2   3
ENDBRANCH   1   2
BRANCH   1  28
ATOM     28  C   UNL     1     103.392  37.749  34.735  1.00  0.00     0.338 C 
ATOM     29  O   UNL     1     104.321  38.532  34.854  1.00  0.00    -0.246 OA
BRANCH  28  30
ATOM     30  C   UNL     1     102.490  37.378  35.854  1.00  0.00     0.064 A 
ATOM     31  C   UNL     1     101.205  37.918  35.924  1.00  0.00     0.066 A 
ATOM     32  C   UNL     1     102.927  36.490  36.837  1.00  0.00     0.020 A 
ATOM     33  C   UNL     1     100.358  37.569  36.977  1.00  0.00     0.161 A 
ATOM     34  C   UNL     1     102.080  36.142  37.889  1.00  0.00     0.051 A 
ATOM     35  C   UNL     1     100.796  36.681  37.959  1.00  0.00     0.160 A 
BRANCH  33  36
ATOM     36  O   UNL     1      99.106  38.102  37.033  1.00  0.00    -0.493 OA
ATOM     37  C   UNL     1      98.571  38.628  35.820  1.00  0.00     0.278 C 
ENDBRANCH  33  36
BRANCH  35  38
ATOM     38  O   UNL     1      99.978  36.332  38.991  1.00  0.00    -0.493 OA
ATOM     39  C   UNL     1     100.571  35.621  40.075  1.00  0.00     0.278 C 
ENDBRANCH  35  38
ENDBRANCH  28  30
ENDBRANCH   1  28
TORSDOF 11
ENDMDL
