MODEL 1
REMARK VINA RESULT:    -7.163      0.000      0.000
REMARK INTER + INTRA:          -8.795
REMARK INTER:                  -8.838
REMARK INTRA:                   0.043
REMARK UNBOUND:                 0.043
REMARK  4 active torsions:
REMARK  status: ('A' for Active; 'I' for Inactive)
REMARK    1  A    between atoms: O3_3  and  C14_14 
REMARK    2  A    between atoms: N5_5  and  C8_8 
REMARK    3  A    between atoms: C8_8  and  C12_12 
REMARK    4  A    between atoms: C8_8  and  C14_14 
ROOT
ATOM      1  C8  UNK d   1     100.408  37.483  35.324  0.00  0.00     0.356 C 
ENDROOT
BRANCH   1   2
ATOM      2  N5  UNK d   1     101.751  37.095  35.756  0.00  0.00     0.111 N 
ATOM      3  C6  UNK d   1     101.691  36.362  37.038  0.00  0.00     0.279 C 
ATOM      4  C9  UNK d   1     103.064  35.760  37.398  0.00  0.00     0.077 C 
ATOM      5  C11 UNK d   1     104.143  36.759  37.141  0.00  0.00    -0.008 A 
ATOM      6  S2  UNK d   1     105.740  36.565  37.685  0.00  0.00    -0.106 SA
ATOM      7  C10 UNK d   1     103.956  37.914  36.409  0.00  0.00    -0.017 A 
ATOM      8  C15 UNK d   1     106.217  38.039  36.954  0.00  0.00     0.051 A 
ATOM      9  C13 UNK d   1     105.169  38.659  36.305  0.00  0.00     0.017 A 
ATOM     10  C7  UNK d   1     102.617  38.292  35.851  0.00  0.00     0.313 C 
ENDBRANCH   1   2
BRANCH   1  11
ATOM     11  C12 UNK d   1     100.412  37.996  33.901  0.00  0.00     0.006 A 
ATOM     12  C16 UNK d   1      99.420  38.850  33.447  0.00  0.00     0.043 A 
ATOM     13 Cl1  UNK d   1      98.132  39.378  34.466  0.00  0.00    -0.084 Cl
ATOM     14  C18 UNK d   1      99.459  39.301  32.128  0.00  0.00     0.024 A 
ATOM     15  C20 UNK d   1     100.488  38.892  31.279  0.00  0.00     0.002 A 
ATOM     16  C19 UNK d   1     101.480  38.031  31.751  0.00  0.00     0.001 A 
ATOM     17  C17 UNK d   1     101.442  37.580  33.071  0.00  0.00     0.011 A 
ENDBRANCH   1  11
BRANCH   1  18
ATOM     18  C14 UNK d   1      99.484  36.288  35.502  0.00  0.00     0.297 C 
ATOM     19  O4  UNK d   1      98.554  36.225  36.296  0.00  0.00    -0.262 OA
BRANCH  18  20
ATOM     20  O3  UNK d   1      99.843  35.302  34.623  0.00  0.00    -0.325 OA
ATOM     21  C21 UNK d   1      98.844  34.934  33.667  0.00  0.00     0.213 C 
ENDBRANCH  18  20
ENDBRANCH   1  18
TORSDOF 4
ENDMDL
MODEL 2
REMARK VINA RESULT:    -6.857      3.106      5.632
REMARK INTER + INTRA:          -8.416
REMARK INTER:                  -8.360
REMARK INTRA:                  -0.056
REMARK UNBOUND:                 0.043
REMARK  4 active torsions:
REMARK  status: ('A' for Active; 'I' for Inactive)
REMARK    1  A    between atoms: O3_3  and  C14_14 
REMARK    2  A    between atoms: N5_5  and  C8_8 
REMARK    3  A    between atoms: C8_8  and  C12_12 
REMARK    4  A    between atoms: C8_8  and  C14_14 
ROOT
ATOM      1  C8  UNK d   1     102.503  36.872  36.242  0.00  0.00     0.356 C 
ENDROOT
BRANCH   1   2
ATOM      2  N5  UNK d   1     101.833  37.664  35.210  0.00  0.00     0.111 N 
ATOM      3  C6  UNK d   1     100.427  37.234  35.059  0.00  0.00     0.279 C 
ATOM      4  C9  UNK d   1      99.648  38.194  34.137  0.00  0.00     0.077 C 
ATOM      5  C11 UNK d   1     100.475  38.535  32.941  0.00  0.00    -0.008 A 
ATOM      6  S2  UNK d   1      99.850  39.325  31.574  0.00  0.00    -0.106 SA
ATOM      7  C10 UNK d   1     101.826  38.274  32.846  0.00  0.00    -0.017 A 
ATOM      8  C15 UNK d   1     101.387  39.328  30.817  0.00  0.00     0.051 A 
ATOM      9  C13 UNK d   1     102.353  38.736  31.603  0.00  0.00     0.017 A 
ATOM     10  C7  UNK d   1     102.575  37.564  33.933  0.00  0.00     0.313 C 
ENDBRANCH   1   2
BRANCH   1  11
ATOM     11  C12 UNK d   1     104.008  36.932  36.093  0.00  0.00     0.006 A 
ATOM     12  C16 UNK d   1     104.708  35.894  35.501  0.00  0.00     0.043 A 
ATOM     13 Cl1  UNK d   1     103.917  34.482  34.902  0.00  0.00    -0.084 Cl
ATOM     14  C18 UNK d   1     106.095  35.985  35.383  0.00  0.00     0.024 A 
ATOM     15  C20 UNK d   1     106.763  37.114  35.857  0.00  0.00     0.002 A 
ATOM     16  C19 UNK d   1     106.044  38.152  36.452  0.00  0.00     0.001 A 
ATOM     17  C17 UNK d   1     104.656  38.060  36.570  0.00  0.00     0.011 A 
ENDBRANCH   1  11
BRANCH   1  18
ATOM     18  C14 UNK d   1     102.040  37.368  37.602  0.00  0.00     0.297 C 
ATOM     19  O4  UNK d   1     101.838  38.539  37.898  0.00  0.00    -0.262 OA
BRANCH  18  20
ATOM     20  O3  UNK d   1     101.864  36.299  38.439  0.00  0.00    -0.325 OA
ATOM     21  C21 UNK d   1     100.605  36.246  39.118  0.00  0.00     0.213 C 
ENDBRANCH  18  20
ENDBRANCH   1  18
TORSDOF 4
ENDMDL
MODEL 3
REMARK VINA RESULT:    -6.835      1.697      1.983
REMARK INTER + INTRA:          -8.390
REMARK INTER:                  -8.052
REMARK INTRA:                  -0.337
REMARK UNBOUND:                 0.043
REMARK  4 active torsions:
REMARK  status: ('A' for Active; 'I' for Inactive)
REMARK    1  A    between atoms: O3_3  and  C14_14 
REMARK    2  A    between atoms: N5_5  and  C8_8 
REMARK    3  A    between atoms: C8_8  and  C12_12 
REMARK    4  A    between atoms: C8_8  and  C14_14 
ROOT
ATOM      1  C8  UNK d   1     100.317  37.570  34.618  0.00  0.00     0.356 C 
ENDROOT
BRANCH   1   2
ATOM      2  N5  UNK d   1     101.579  37.376  35.333  0.00  0.00     0.111 N 
ATOM      3  C6  UNK d   1     101.486  37.919  36.705  0.00  0.00     0.279 C 
ATOM      4  C9  UNK d   1     102.723  37.533  37.540  0.00  0.00     0.077 C 
ATOM      5  C11 UNK d   1     103.963  37.717  36.730  0.00  0.00    -0.008 A 
ATOM      6  S2  UNK d   1     105.525  37.672  37.396  0.00  0.00    -0.106 SA
ATOM      7  C10 UNK d   1     103.963  37.903  35.363  0.00  0.00    -0.017 A 
ATOM      8  C15 UNK d   1     106.238  37.912  35.857  0.00  0.00     0.051 A 
ATOM      9  C13 UNK d   1     105.293  38.020  34.858  0.00  0.00     0.017 A 
ATOM     10  C7  UNK d   1     102.691  37.994  34.575  0.00  0.00     0.313 C 
ENDBRANCH   1   2
BRANCH   1  11
ATOM     11  C12 UNK d   1     100.352  36.922  33.251  0.00  0.00     0.006 A 
ATOM     12  C16 UNK d   1     100.013  37.637  32.114  0.00  0.00     0.043 A 
ATOM     13 Cl1  UNK d   1      99.535  39.293  32.184  0.00  0.00    -0.084 Cl
ATOM     14  C18 UNK d   1     100.056  37.004  30.872  0.00  0.00     0.024 A 
ATOM     15  C20 UNK d   1     100.439  35.666  30.783  0.00  0.00     0.002 A 
ATOM     16  C19 UNK d   1     100.778  34.959  31.937  0.00  0.00     0.001 A 
ATOM     17  C17 UNK d   1     100.734  35.592  33.180  0.00  0.00     0.011 A 
ENDBRANCH   1  11
BRANCH   1  18
ATOM     18  C14 UNK d   1      99.190  37.030  35.482  0.00  0.00     0.297 C 
ATOM     19  O4  UNK d   1      99.227  35.988  36.126  0.00  0.00    -0.262 OA
BRANCH  18  20
ATOM     20  O3  UNK d   1      98.132  37.898  35.444  0.00  0.00    -0.325 OA
ATOM     21  C21 UNK d   1      97.046  37.512  34.597  0.00  0.00     0.213 C 
ENDBRANCH  18  20
ENDBRANCH   1  18
TORSDOF 4
ENDMDL
MODEL 4
REMARK VINA RESULT:    -6.750      3.200      4.613
REMARK INTER + INTRA:          -8.284
REMARK INTER:                  -8.314
REMARK INTRA:                   0.030
REMARK UNBOUND:                 0.043
REMARK  4 active torsions:
REMARK  status: ('A' for Active; 'I' for Inactive)
REMARK    1  A    between atoms: O3_3  and  C14_14 
REMARK    2  A    between atoms: N5_5  and  C8_8 
REMARK    3  A    between atoms: C8_8  and  C12_12 
REMARK    4  A    between atoms: C8_8  and  C14_14 
ROOT
ATOM      1  C8  UNK d   1     101.459  36.883  34.608  0.00  0.00     0.356 C 
ENDROOT
BRANCH   1   2
ATOM      2  N5  UNK d   1     101.717  35.502  34.200  0.00  0.00     0.111 N 
ATOM      3  C6  UNK d   1     103.141  35.160  34.400  0.00  0.00     0.279 C 
ATOM      4  C9  UNK d   1     103.386  33.653  34.184  0.00  0.00     0.077 C 
ATOM      5  C11 UNK d   1     102.653  33.187  32.969  0.00  0.00    -0.008 A 
ATOM      6  S2  UNK d   1     102.912  31.669  32.252  0.00  0.00    -0.106 SA
ATOM      7  C10 UNK d   1     101.673  33.925  32.337  0.00  0.00    -0.017 A 
ATOM      8  C15 UNK d   1     101.714  31.974  31.065  0.00  0.00     0.051 A 
ATOM      9  C13 UNK d   1     101.131  33.214  31.225  0.00  0.00     0.017 A 
ATOM     10  C7  UNK d   1     101.299  35.302  32.794  0.00  0.00     0.313 C 
ENDBRANCH   1   2
BRANCH   1  11
ATOM     11  C12 UNK d   1     101.068  37.743  33.426  0.00  0.00     0.006 A 
ATOM     12  C16 UNK d   1     102.020  38.453  32.713  0.00  0.00     0.043 A 
ATOM     13 Cl1  UNK d   1     103.695  38.401  33.123  0.00  0.00    -0.084 Cl
ATOM     14  C18 UNK d   1     101.620  39.235  31.630  0.00  0.00     0.024 A 
ATOM     15  C20 UNK d   1     100.273  39.297  31.273  0.00  0.00     0.002 A 
ATOM     16  C19 UNK d   1      99.325  38.577  32.001  0.00  0.00     0.001 A 
ATOM     17  C17 UNK d   1      99.725  37.794  33.085  0.00  0.00     0.011 A 
ENDBRANCH   1  11
BRANCH   1  18
ATOM     18  C14 UNK d   1     100.392  36.873  35.690  0.00  0.00     0.297 C 
ATOM     19  O4  UNK d   1      99.586  35.970  35.881  0.00  0.00    -0.262 OA
BRANCH  18  20
ATOM     20  O3  UNK d   1     100.485  38.020  36.430  0.00  0.00    -0.325 OA
ATOM     21  C21 UNK d   1     101.515  38.032  37.424  0.00  0.00     0.213 C 
ENDBRANCH  18  20
ENDBRANCH   1  18
TORSDOF 4
ENDMDL
MODEL 5
REMARK VINA RESULT:    -6.697      2.175      2.457
REMARK INTER + INTRA:          -8.220
REMARK INTER:                  -8.266
REMARK INTRA:                   0.047
REMARK UNBOUND:                 0.043
REMARK  4 active torsions:
REMARK  status: ('A' for Active; 'I' for Inactive)
REMARK    1  A    between atoms: O3_3  and  C14_14 
REMARK    2  A    between atoms: N5_5  and  C8_8 
REMARK    3  A    between atoms: C8_8  and  C12_12 
REMARK    4  A    between atoms: C8_8  and  C14_14 
ROOT
ATOM      1  C8  UNK d   1     101.168  37.407  34.346  0.00  0.00     0.356 C 
ENDROOT
BRANCH   1   2
ATOM      2  N5  UNK d   1     102.513  36.846  34.215  0.00  0.00     0.111 N 
ATOM      3  C6  UNK d   1     102.775  35.871  35.294  0.00  0.00     0.279 C 
ATOM      4  C9  UNK d   1     104.095  35.113  35.050  0.00  0.00     0.077 C 
ATOM      5  C11 UNK d   1     105.157  36.067  34.610  0.00  0.00    -0.008 A 
ATOM      6  S2  UNK d   1     106.802  35.653  34.528  0.00  0.00    -0.106 SA
ATOM      7  C10 UNK d   1     104.900  37.357  34.195  0.00  0.00    -0.017 A 
ATOM      8  C15 UNK d   1     107.210  37.210  33.938  0.00  0.00     0.051 A 
ATOM      9  C13 UNK d   1     106.103  38.021  33.807  0.00  0.00     0.017 A 
ATOM     10  C7  UNK d   1     103.517  37.934  34.206  0.00  0.00     0.313 C 
ENDBRANCH   1   2
BRANCH   1  11
ATOM     11  C12 UNK d   1     100.351  37.180  33.093  0.00  0.00     0.006 A 
ATOM     12  C16 UNK d   1      99.168  37.868  32.877  0.00  0.00     0.043 A 
ATOM     13 Cl1  UNK d   1      98.559  39.016  34.013  0.00  0.00    -0.084 Cl
ATOM     14  C18 UNK d   1      98.442  37.631  31.710  0.00  0.00     0.024 A 
ATOM     15  C20 UNK d   1      98.909  36.709  30.773  0.00  0.00     0.002 A 
ATOM     16  C19 UNK d   1     100.102  36.023  31.004  0.00  0.00     0.001 A 
ATOM     17  C17 UNK d   1     100.828  36.260  32.172  0.00  0.00     0.011 A 
ENDBRANCH   1  11
BRANCH   1  18
ATOM     18  C14 UNK d   1     100.514  36.800  35.577  0.00  0.00     0.297 C 
ATOM     19  O4  UNK d   1      99.814  35.795  35.584  0.00  0.00    -0.262 OA
BRANCH  18  20
ATOM     20  O3  UNK d   1     100.847  37.541  36.679  0.00  0.00    -0.325 OA
ATOM     21  C21 UNK d   1     100.387  37.025  37.932  0.00  0.00     0.213 C 
ENDBRANCH  18  20
ENDBRANCH   1  18
TORSDOF 4
ENDMDL
MODEL 6
REMARK VINA RESULT:    -6.693      3.495      5.581
REMARK INTER + INTRA:          -8.214
REMARK INTER:                  -7.897
REMARK INTRA:                  -0.317
REMARK UNBOUND:                 0.043
REMARK  4 active torsions:
REMARK  status: ('A' for Active; 'I' for Inactive)
REMARK    1  A    between atoms: O3_3  and  C14_14 
REMARK    2  A    between atoms: N5_5  and  C8_8 
REMARK    3  A    between atoms: C8_8  and  C12_12 
REMARK    4  A    between atoms: C8_8  and  C14_14 
ROOT
ATOM      1  C8  UNK d   1      99.972  37.433  33.834  0.00  0.00     0.356 C 
ENDROOT
BRANCH   1   2
ATOM      2  N5  UNK d   1     100.242  36.591  32.668  0.00  0.00     0.111 N 
ATOM      3  C6  UNK d   1      99.017  36.421  31.859  0.00  0.00     0.279 C 
ATOM      4  C9  UNK d   1      99.329  35.721  30.520  0.00  0.00     0.077 C 
ATOM      5  C11 UNK d   1     100.258  34.575  30.748  0.00  0.00    -0.008 A 
ATOM      6  S2  UNK d   1     100.594  33.401  29.568  0.00  0.00    -0.106 SA
ATOM      7  C10 UNK d   1     100.958  34.380  31.921  0.00  0.00    -0.017 A 
ATOM      8  C15 UNK d   1     101.686  32.596  30.614  0.00  0.00     0.051 A 
ATOM      9  C13 UNK d   1     101.788  33.222  31.839  0.00  0.00     0.017 A 
ATOM     10  C7  UNK d   1     100.796  35.289  33.102  0.00  0.00     0.313 C 
ENDBRANCH   1   2
BRANCH   1  11
ATOM     11  C12 UNK d   1     101.249  37.793  34.562  0.00  0.00     0.006 A 
ATOM     12  C16 UNK d   1     101.400  37.524  35.913  0.00  0.00     0.043 A 
ATOM     13 Cl1  UNK d   1     100.155  36.770  36.839  0.00  0.00    -0.084 Cl
ATOM     14  C18 UNK d   1     102.592  37.870  36.549  0.00  0.00     0.024 A 
ATOM     15  C20 UNK d   1     103.617  38.481  35.827  0.00  0.00     0.002 A 
ATOM     16  C19 UNK d   1     103.450  38.745  34.467  0.00  0.00     0.001 A 
ATOM     17  C17 UNK d   1     102.258  38.399  33.830  0.00  0.00     0.011 A 
ENDBRANCH   1  11
BRANCH   1  18
ATOM     18  C14 UNK d   1      99.209  38.663  33.370  0.00  0.00     0.297 C 
ATOM     19  O4  UNK d   1      99.452  39.306  32.356  0.00  0.00    -0.262 OA
BRANCH  18  20
ATOM     20  O3  UNK d   1      98.196  38.929  34.251  0.00  0.00    -0.325 OA
ATOM     21  C21 UNK d   1      97.447  37.792  34.691  0.00  0.00     0.213 C 
ENDBRANCH  18  20
ENDBRANCH   1  18
TORSDOF 4
ENDMDL
MODEL 7
REMARK VINA RESULT:    -6.674      3.799      6.448
REMARK INTER + INTRA:          -8.191
REMARK INTER:                  -8.132
REMARK INTRA:                  -0.059
REMARK UNBOUND:                 0.043
REMARK  4 active torsions:
REMARK  status: ('A' for Active; 'I' for Inactive)
REMARK    1  A    between atoms: O3_3  and  C14_14 
REMARK    2  A    between atoms: N5_5  and  C8_8 
REMARK    3  A    between atoms: C8_8  and  C12_12 
REMARK    4  A    between atoms: C8_8  and  C14_14 
ROOT
ATOM      1  C8  UNK d   1      99.389  37.804  32.664  0.00  0.00     0.356 C 
ENDROOT
BRANCH   1   2
ATOM      2  N5  UNK d   1      99.444  36.501  32.000  0.00  0.00     0.111 N 
ATOM      3  C6  UNK d   1      99.189  36.648  30.551  0.00  0.00     0.279 C 
ATOM      4  C9  UNK d   1      99.455  35.326  29.804  0.00  0.00     0.077 C 
ATOM      5  C11 UNK d   1      98.876  34.182  30.569  0.00  0.00    -0.008 A 
ATOM      6  S2  UNK d   1      98.716  32.618  29.925  0.00  0.00    -0.106 SA
ATOM      7  C10 UNK d   1      98.449  34.275  31.878  0.00  0.00    -0.017 A 
ATOM      8  C15 UNK d   1      98.059  32.031  31.395  0.00  0.00     0.051 A 
ATOM      9  C13 UNK d   1      97.970  33.018  32.354  0.00  0.00     0.017 A 
ATOM     10  C7  UNK d   1      98.483  35.570  32.632  0.00  0.00     0.313 C 
ENDBRANCH   1   2
BRANCH   1  11
ATOM     11  C12 UNK d   1      99.682  37.682  34.143  0.00  0.00     0.006 A 
ATOM     12  C16 UNK d   1      99.057  38.507  35.065  0.00  0.00     0.043 A 
ATOM     13 Cl1  UNK d   1      97.918  39.712  34.588  0.00  0.00    -0.084 Cl
ATOM     14  C18 UNK d   1      99.354  38.365  36.420  0.00  0.00     0.024 A 
ATOM     15  C20 UNK d   1     100.271  37.399  36.836  0.00  0.00     0.002 A 
ATOM     16  C19 UNK d   1     100.892  36.576  35.897  0.00  0.00     0.001 A 
ATOM     17  C17 UNK d   1     100.595  36.718  34.540  0.00  0.00     0.011 A 
ENDBRANCH   1  11
BRANCH   1  18
ATOM     18  C14 UNK d   1     100.358  38.741  31.961  0.00  0.00     0.297 C 
ATOM     19  O4  UNK d   1     100.056  39.799  31.422  0.00  0.00    -0.262 OA
BRANCH  18  20
ATOM     20  O3  UNK d   1     101.624  38.228  32.041  0.00  0.00    -0.325 OA
ATOM     21  C21 UNK d   1     102.680  39.192  32.092  0.00  0.00     0.213 C 
ENDBRANCH  18  20
ENDBRANCH   1  18
TORSDOF 4
ENDMDL
MODEL 8
REMARK VINA RESULT:    -6.650      3.973      6.185
REMARK INTER + INTRA:          -8.162
REMARK INTER:                  -7.941
REMARK INTRA:                  -0.220
REMARK UNBOUND:                 0.043
REMARK  4 active torsions:
REMARK  status: ('A' for Active; 'I' for Inactive)
REMARK    1  A    between atoms: O3_3  and  C14_14 
REMARK    2  A    between atoms: N5_5  and  C8_8 
REMARK    3  A    between atoms: C8_8  and  C12_12 
REMARK    4  A    between atoms: C8_8  and  C14_14 
ROOT
ATOM      1  C8  UNK d   1      99.869  35.897  33.683  0.00  0.00     0.356 C 
ENDROOT
BRANCH   1   2
ATOM      2  N5  UNK d   1      99.085  34.990  32.844  0.00  0.00     0.111 N 
ATOM      3  C6  UNK d   1      98.865  33.703  33.538  0.00  0.00     0.279 C 
ATOM      4  C9  UNK d   1      97.864  32.820  32.766  0.00  0.00     0.077 C 
ATOM      5  C11 UNK d   1      98.172  32.857  31.305  0.00  0.00    -0.008 A 
ATOM      6  S2  UNK d   1      97.476  31.792  30.181  0.00  0.00    -0.106 SA
ATOM      7  C10 UNK d   1      99.019  33.779  30.726  0.00  0.00    -0.017 A 
ATOM      8  C15 UNK d   1      98.308  32.543  28.885  0.00  0.00     0.051 A 
ATOM      9  C13 UNK d   1      99.098  33.590  29.313  0.00  0.00     0.017 A 
ATOM     10  C7  UNK d   1      99.756  34.801  31.539  0.00  0.00     0.313 C 
ENDBRANCH   1   2
BRANCH   1  11
ATOM     11  C12 UNK d   1     100.358  37.093  32.896  0.00  0.00     0.006 A 
ATOM     12  C16 UNK d   1     101.695  37.459  32.910  0.00  0.00     0.043 A 
ATOM     13 Cl1  UNK d   1     102.872  36.582  33.817  0.00  0.00    -0.084 Cl
ATOM     14  C18 UNK d   1     102.107  38.567  32.172  0.00  0.00     0.024 A 
ATOM     15  C20 UNK d   1     101.178  39.296  31.429  0.00  0.00     0.002 A 
ATOM     16  C19 UNK d   1      99.836  38.916  31.424  0.00  0.00     0.001 A 
ATOM     17  C17 UNK d   1      99.423  37.806  32.163  0.00  0.00     0.011 A 
ENDBRANCH   1  11
BRANCH   1  18
ATOM     18  C14 UNK d   1      99.017  36.303  34.876  0.00  0.00     0.297 C 
ATOM     19  O4  UNK d   1      97.895  36.790  34.812  0.00  0.00    -0.262 OA
BRANCH  18  20
ATOM     20  O3  UNK d   1      99.693  36.021  36.032  0.00  0.00    -0.325 OA
ATOM     21  C21 UNK d   1     100.073  37.155  36.818  0.00  0.00     0.213 C 
ENDBRANCH  18  20
ENDBRANCH   1  18
TORSDOF 4
ENDMDL
MODEL 9
REMARK VINA RESULT:    -6.617      3.662      5.744
REMARK INTER + INTRA:          -8.121
REMARK INTER:                  -7.774
REMARK INTRA:                  -0.348
REMARK UNBOUND:                 0.043
REMARK  4 active torsions:
REMARK  status: ('A' for Active; 'I' for Inactive)
REMARK    1  A    between atoms: O3_3  and  C14_14 
REMARK    2  A    between atoms: N5_5  and  C8_8 
REMARK    3  A    between atoms: C8_8  and  C12_12 
REMARK    4  A    between atoms: C8_8  and  C14_14 
ROOT
ATOM      1  C8  UNK d   1     100.585  36.138  34.119  0.00  0.00     0.356 C 
ENDROOT
BRANCH   1   2
ATOM      2  N5  UNK d   1     100.012  35.410  32.986  0.00  0.00     0.111 N 
ATOM      3  C6  UNK d   1      98.955  34.485  33.447  0.00  0.00     0.279 C 
ATOM      4  C9  UNK d   1      98.195  33.872  32.254  0.00  0.00     0.077 C 
ATOM      5  C11 UNK d   1      99.159  33.460  31.192  0.00  0.00    -0.008 A 
ATOM      6  S2  UNK d   1      98.724  32.492  29.866  0.00  0.00    -0.106 SA
ATOM      7  C10 UNK d   1     100.481  33.854  31.165  0.00  0.00    -0.017 A 
ATOM      8  C15 UNK d   1     100.313  32.573  29.227  0.00  0.00     0.051 A 
ATOM      9  C13 UNK d   1     101.151  33.331  30.018  0.00  0.00     0.017 A 
ATOM     10  C7  UNK d   1     101.080  34.697  32.250  0.00  0.00     0.313 C 
ENDBRANCH   1   2
BRANCH   1  11
ATOM     11  C12 UNK d   1     101.477  37.268  33.654  0.00  0.00     0.006 A 
ATOM     12  C16 UNK d   1     102.694  37.516  34.268  0.00  0.00     0.043 A 
ATOM     13 Cl1  UNK d   1     103.263  36.560  35.587  0.00  0.00    -0.084 Cl
ATOM     14  C18 UNK d   1     103.488  38.567  33.811  0.00  0.00     0.024 A 
ATOM     15  C20 UNK d   1     103.056  39.357  32.746  0.00  0.00     0.002 A 
ATOM     16  C19 UNK d   1     101.828  39.096  32.138  0.00  0.00     0.001 A 
ATOM     17  C17 UNK d   1     101.033  38.044  32.595  0.00  0.00     0.011 A 
ENDBRANCH   1  11
BRANCH   1  18
ATOM     18  C14 UNK d   1      99.446  36.629  34.998  0.00  0.00     0.297 C 
ATOM     19  O4  UNK d   1      98.529  37.352  34.631  0.00  0.00    -0.262 OA
BRANCH  18  20
ATOM     20  O3  UNK d   1      99.596  36.120  36.260  0.00  0.00    -0.325 OA
ATOM     21  C21 UNK d   1     100.033  37.051  37.254  0.00  0.00     0.213 C 
ENDBRANCH  18  20
ENDBRANCH   1  18
TORSDOF 4
ENDMDL
