MODEL 1
REMARK VINA RESULT:    -7.547      0.000      0.000
REMARK INTER + INTRA:          -9.557
REMARK INTER:                  -9.532
REMARK INTRA:                  -0.026
REMARK UNBOUND:                -0.026
REMARK  7 active torsions:
REMARK  status: ('A' for Active; 'I' for Inactive)
REMARK    1  A    between atoms: O3_3  and  C12_12 
REMARK    2  A    between atoms: O4_4  and  C13_13 
REMARK    3  A    between atoms: O5_5  and  C16_16 
REMARK    4  A    between atoms: O6_6  and  C19_19 
REMARK    5  A    between atoms: O8_8  and  C21_21 
REMARK    6  A    between atoms: O9_9  and  C22_22 
REMARK    7  A    between atoms: C14_14  and  C16_16 
ROOT
ATOM      1  O1  RES d   1     100.718  37.889  35.641  0.00  0.00    -0.368 OA
ATOM      2  O2  RES d   1     104.032  36.370  35.928  0.00  0.00    -0.306 OA
ATOM      3  O7  RES d   1     105.798  36.454  34.601  0.00  0.00    -0.259 OA
ATOM      4  C10 RES d   1     102.843  37.060  36.338  0.00  0.00     0.197 C 
ATOM      5  C11 RES d   1     101.854  37.175  35.180  0.00  0.00     0.191 C 
ATOM      6  C12 RES d   1     102.212  36.319  37.503  0.00  0.00     0.181 C 
ATOM      7  C13 RES d   1     100.858  36.951  37.862  0.00  0.00     0.180 C 
ATOM      8  C14 RES d   1      99.980  37.161  36.626  0.00  0.00     0.177 C 
ATOM      9  C15 RES d   1     102.527  37.880  34.032  0.00  0.00     0.026 A 
ATOM     10  C17 RES d   1     103.919  37.740  33.909  0.00  0.00     0.054 A 
ATOM     11  C18 RES d   1     104.680  36.831  34.824  0.00  0.00     0.294 C 
ATOM     12  C19 RES d   1     101.850  38.611  33.054  0.00  0.00     0.111 A 
ATOM     13  C20 RES d   1     104.632  38.331  32.869  0.00  0.00     0.057 A 
ATOM     14  C21 RES d   1     102.575  39.257  32.048  0.00  0.00     0.135 A 
ATOM     15  C22 RES d   1     103.955  39.102  31.936  0.00  0.00     0.102 A 
ENDROOT
BRANCH   8  16
ATOM     16  C16 RES d   1      98.724  37.980  36.876  0.00  0.00     0.198 C 
BRANCH  16  17
ATOM     17  O5  RES d   1      98.171  38.444  35.656  0.00  0.00    -0.398 OA
ATOM     18  H34 RES d   1      97.750  37.685  35.228  0.00  0.00     0.209 HD
ENDBRANCH  16  17
ENDBRANCH   8  16
BRANCH   7  19
ATOM     19  O4  RES d   1     100.211  36.185  38.879  0.00  0.00    -0.390 OA
ATOM     20  H32 RES d   1      99.749  35.442  38.468  0.00  0.00     0.210 HD
ENDBRANCH   7  19
BRANCH   6  21
ATOM     21  O3  RES d   1     103.091  36.354  38.610  0.00  0.00    -0.390 OA
ATOM     22  H31 RES d   1     103.461  37.245  38.661  0.00  0.00     0.210 HD
ENDBRANCH   6  21
BRANCH  12  23
ATOM     23  O6  RES d   1     100.490  38.704  33.043  0.00  0.00    -0.357 OA
ATOM     24  H35 RES d   1     100.218  38.949  33.940  0.00  0.00     0.217 HD
ENDBRANCH  12  23
BRANCH  14  25
ATOM     25  O8  RES d   1     101.888  39.990  31.096  0.00  0.00    -0.351 OA
ATOM     26  C23 RES d   1     101.275  39.182  30.064  0.00  0.00     0.210 C 
ENDBRANCH  14  25
BRANCH  15  27
ATOM     27  O9  RES d   1     104.636  39.687  30.915  0.00  0.00    -0.358 OA
ATOM     28  H36 RES d   1     105.056  38.988  30.392  0.00  0.00     0.217 HD
ENDBRANCH  15  27
TORSDOF 7
ENDMDL
MODEL 2
REMARK VINA RESULT:    -7.369      2.273      5.436
REMARK INTER + INTRA:          -9.333
REMARK INTER:                  -9.036
REMARK INTRA:                  -0.298
REMARK UNBOUND:                -0.026
REMARK  7 active torsions:
REMARK  status: ('A' for Active; 'I' for Inactive)
REMARK    1  A    between atoms: O3_3  and  C12_12 
REMARK    2  A    between atoms: O4_4  and  C13_13 
REMARK    3  A    between atoms: O5_5  and  C16_16 
REMARK    4  A    between atoms: O6_6  and  C19_19 
REMARK    5  A    between atoms: O8_8  and  C21_21 
REMARK    6  A    between atoms: O9_9  and  C22_22 
REMARK    7  A    between atoms: C14_14  and  C16_16 
ROOT
ATOM      1  O1  RES d   1     101.222  37.020  33.630  0.00  0.00    -0.368 OA
ATOM      2  O2  RES d   1      99.456  36.667  36.812  0.00  0.00    -0.306 OA
ATOM      3  O7  RES d   1     100.201  36.349  38.870  0.00  0.00    -0.259 OA
ATOM      4  C10 RES d   1      99.780  37.201  35.520  0.00  0.00     0.197 C 
ATOM      5  C11 RES d   1     100.935  36.427  34.886  0.00  0.00     0.191 C 
ATOM      6  C12 RES d   1      98.550  37.140  34.633  0.00  0.00     0.181 C 
ATOM      7  C13 RES d   1      98.909  37.565  33.200  0.00  0.00     0.180 C 
ATOM      8  C14 RES d   1     100.161  36.846  32.688  0.00  0.00     0.177 C 
ATOM      9  C15 RES d   1     102.121  36.478  35.811  0.00  0.00     0.026 A 
ATOM     10  C17 RES d   1     101.869  36.587  37.188  0.00  0.00     0.054 A 
ATOM     11  C18 RES d   1     100.467  36.543  37.715  0.00  0.00     0.294 C 
ATOM     12  C19 RES d   1     103.448  36.362  35.393  0.00  0.00     0.111 A 
ATOM     13  C20 RES d   1     102.896  36.616  38.128  0.00  0.00     0.057 A 
ATOM     14  C21 RES d   1     104.480  36.457  36.331  0.00  0.00     0.135 A 
ATOM     15  C22 RES d   1     104.212  36.558  37.695  0.00  0.00     0.102 A 
ENDROOT
BRANCH   8  16
ATOM     16  C16 RES d   1     100.699  37.377  31.370  0.00  0.00     0.198 C 
BRANCH  16  17
ATOM     17  O5  RES d   1      99.986  36.829  30.274  0.00  0.00    -0.398 OA
ATOM     18  H34 RES d   1     100.063  35.866  30.339  0.00  0.00     0.209 HD
ENDBRANCH  16  17
ENDBRANCH   8  16
BRANCH   7  19
ATOM     19  O4  RES d   1      97.782  37.397  32.339  0.00  0.00    -0.390 OA
ATOM     20  H32 RES d   1      97.843  36.537  31.904  0.00  0.00     0.210 HD
ENDBRANCH   7  19
BRANCH   6  21
ATOM     21  O3  RES d   1      97.547  37.981  35.167  0.00  0.00    -0.390 OA
ATOM     22  H31 RES d   1      97.934  38.858  35.287  0.00  0.00     0.210 HD
ENDBRANCH   6  21
BRANCH  12  23
ATOM     23  O6  RES d   1     103.771  36.145  34.086  0.00  0.00    -0.357 OA
ATOM     24  H35 RES d   1     102.964  36.293  33.570  0.00  0.00     0.217 HD
ENDBRANCH  12  23
BRANCH  14  25
ATOM     25  O8  RES d   1     105.790  36.356  35.897  0.00  0.00    -0.351 OA
ATOM     26  C23 RES d   1     106.423  37.632  35.641  0.00  0.00     0.210 C 
ENDBRANCH  14  25
BRANCH  15  27
ATOM     27  O9  RES d   1     105.227  36.586  38.600  0.00  0.00    -0.358 OA
ATOM     28  H36 RES d   1     104.846  36.742  39.477  0.00  0.00     0.217 HD
ENDBRANCH  15  27
TORSDOF 7
ENDMDL
MODEL 3
REMARK VINA RESULT:    -7.292      1.942      5.026
REMARK INTER + INTRA:          -9.236
REMARK INTER:                  -8.925
REMARK INTRA:                  -0.311
REMARK UNBOUND:                -0.026
REMARK  7 active torsions:
REMARK  status: ('A' for Active; 'I' for Inactive)
REMARK    1  A    between atoms: O3_3  and  C12_12 
REMARK    2  A    between atoms: O4_4  and  C13_13 
REMARK    3  A    between atoms: O5_5  and  C16_16 
REMARK    4  A    between atoms: O6_6  and  C19_19 
REMARK    5  A    between atoms: O8_8  and  C21_21 
REMARK    6  A    between atoms: O9_9  and  C22_22 
REMARK    7  A    between atoms: C14_14  and  C16_16 
ROOT
ATOM      1  O1  RES d   1     103.380  37.536  34.564  0.00  0.00    -0.368 OA
ATOM      2  O2  RES d   1     102.139  36.673  37.893  0.00  0.00    -0.306 OA
ATOM      3  O7  RES d   1     100.082  36.488  38.683  0.00  0.00    -0.259 OA
ATOM      4  C10 RES d   1     102.949  36.594  36.712  0.00  0.00     0.197 C 
ATOM      5  C11 RES d   1     102.565  37.687  35.715  0.00  0.00     0.191 C 
ATOM      6  C12 RES d   1     104.411  36.722  37.101  0.00  0.00     0.181 C 
ATOM      7  C13 RES d   1     105.290  36.793  35.841  0.00  0.00     0.180 C 
ATOM      8  C14 RES d   1     104.757  37.812  34.831  0.00  0.00     0.177 C 
ATOM      9  C15 RES d   1     101.103  37.551  35.384  0.00  0.00     0.026 A 
ATOM     10  C17 RES d   1     100.260  37.008  36.367  0.00  0.00     0.054 A 
ATOM     11  C18 RES d   1     100.788  36.682  37.731  0.00  0.00     0.294 C 
ATOM     12  C19 RES d   1     100.524  37.984  34.189  0.00  0.00     0.111 A 
ATOM     13  C20 RES d   1      98.889  36.864  36.169  0.00  0.00     0.057 A 
ATOM     14  C21 RES d   1      99.160  37.780  33.967  0.00  0.00     0.135 A 
ATOM     15  C22 RES d   1      98.337  37.246  34.957  0.00  0.00     0.102 A 
ENDROOT
BRANCH   8  16
ATOM     16  C16 RES d   1     105.446  37.777  33.476  0.00  0.00     0.198 C 
BRANCH  16  17
ATOM     17  O5  RES d   1     106.803  38.174  33.587  0.00  0.00    -0.398 OA
ATOM     18  H34 RES d   1     106.928  38.927  32.994  0.00  0.00     0.209 HD
ENDBRANCH  16  17
ENDBRANCH   8  16
BRANCH   7  19
ATOM     19  O4  RES d   1     106.651  37.030  36.204  0.00  0.00    -0.390 OA
ATOM     20  H32 RES d   1     106.940  36.336  36.812  0.00  0.00     0.210 HD
ENDBRANCH   7  19
BRANCH   6  21
ATOM     21  O3  RES d   1     104.778  35.619  37.905  0.00  0.00    -0.390 OA
ATOM     22  H31 RES d   1     105.273  35.003  37.349  0.00  0.00     0.210 HD
ENDBRANCH   6  21
BRANCH  12  23
ATOM     23  O6  RES d   1     101.256  38.619  33.229  0.00  0.00    -0.357 OA
ATOM     24  H35 RES d   1     102.186  38.406  33.398  0.00  0.00     0.217 HD
ENDBRANCH  12  23
BRANCH  14  25
ATOM     25  O8  RES d   1      98.607  38.202  32.770  0.00  0.00    -0.351 OA
ATOM     26  C23 RES d   1      98.553  37.173  31.754  0.00  0.00     0.210 C 
ENDBRANCH  14  25
BRANCH  15  27
ATOM     27  O9  RES d   1      97.000  37.111  34.746  0.00  0.00    -0.358 OA
ATOM     28  H36 RES d   1      96.562  37.914  35.064  0.00  0.00     0.217 HD
ENDBRANCH  15  27
TORSDOF 7
ENDMDL
MODEL 4
REMARK VINA RESULT:    -7.175      1.434      2.427
REMARK INTER + INTRA:          -9.088
REMARK INTER:                  -8.901
REMARK INTRA:                  -0.187
REMARK UNBOUND:                -0.026
REMARK  7 active torsions:
REMARK  status: ('A' for Active; 'I' for Inactive)
REMARK    1  A    between atoms: O3_3  and  C12_12 
REMARK    2  A    between atoms: O4_4  and  C13_13 
REMARK    3  A    between atoms: O5_5  and  C16_16 
REMARK    4  A    between atoms: O6_6  and  C19_19 
REMARK    5  A    between atoms: O8_8  and  C21_21 
REMARK    6  A    between atoms: O9_9  and  C22_22 
REMARK    7  A    between atoms: C14_14  and  C16_16 
ROOT
ATOM      1  O1  RES d   1     101.744  37.345  36.032  0.00  0.00    -0.368 OA
ATOM      2  O2  RES d   1     105.096  37.746  34.628  0.00  0.00    -0.306 OA
ATOM      3  O7  RES d   1     105.775  38.435  32.640  0.00  0.00    -0.259 OA
ATOM      4  C10 RES d   1     104.039  37.824  35.595  0.00  0.00     0.197 C 
ATOM      5  C11 RES d   1     102.752  37.211  35.044  0.00  0.00     0.191 C 
ATOM      6  C12 RES d   1     104.467  37.106  36.862  0.00  0.00     0.181 C 
ATOM      7  C13 RES d   1     103.297  37.043  37.857  0.00  0.00     0.180 C 
ATOM      8  C14 RES d   1     102.009  36.552  37.192  0.00  0.00     0.177 C 
ATOM      9  C15 RES d   1     102.381  37.923  33.770  0.00  0.00     0.026 A 
ATOM     10  C17 RES d   1     103.423  38.467  33.001  0.00  0.00     0.054 A 
ATOM     11  C18 RES d   1     104.853  38.247  33.386  0.00  0.00     0.294 C 
ATOM     12  C19 RES d   1     101.079  38.022  33.276  0.00  0.00     0.111 A 
ATOM     13  C20 RES d   1     103.187  39.122  31.795  0.00  0.00     0.057 A 
ATOM     14  C21 RES d   1     100.838  38.735  32.099  0.00  0.00     0.135 A 
ATOM     15  C22 RES d   1     101.884  39.263  31.344  0.00  0.00     0.102 A 
ENDROOT
BRANCH   8  16
ATOM     16  C16 RES d   1     100.766  36.675  38.058  0.00  0.00     0.198 C 
BRANCH  16  17
ATOM     17  O5  RES d   1     100.892  35.901  39.239  0.00  0.00    -0.398 OA
ATOM     18  H34 RES d   1      99.996  35.711  39.552  0.00  0.00     0.209 HD
ENDBRANCH  16  17
ENDBRANCH   8  16
BRANCH   7  19
ATOM     19  O4  RES d   1     103.664  36.268  38.999  0.00  0.00    -0.390 OA
ATOM     20  H32 RES d   1     104.584  35.988  38.908  0.00  0.00     0.210 HD
ENDBRANCH   7  19
BRANCH   6  21
ATOM     21  O3  RES d   1     105.572  37.782  37.430  0.00  0.00    -0.390 OA
ATOM     22  H31 RES d   1     106.268  37.129  37.580  0.00  0.00     0.210 HD
ENDBRANCH   6  21
BRANCH  12  23
ATOM     23  O6  RES d   1     100.027  37.427  33.908  0.00  0.00    -0.357 OA
ATOM     24  H35 RES d   1      99.878  37.920  34.729  0.00  0.00     0.217 HD
ENDBRANCH  12  23
BRANCH  14  25
ATOM     25  O8  RES d   1      99.538  38.836  31.633  0.00  0.00    -0.351 OA
ATOM     26  C23 RES d   1      99.084  37.671  30.904  0.00  0.00     0.210 C 
ENDBRANCH  14  25
BRANCH  15  27
ATOM     27  O9  RES d   1     101.636  39.901  30.169  0.00  0.00    -0.358 OA
ATOM     28  H36 RES d   1     101.159  39.289  29.589  0.00  0.00     0.217 HD
ENDBRANCH  15  27
TORSDOF 7
ENDMDL
MODEL 5
REMARK VINA RESULT:    -7.046      2.207      4.007
REMARK INTER + INTRA:          -8.925
REMARK INTER:                  -8.753
REMARK INTRA:                  -0.172
REMARK UNBOUND:                -0.026
REMARK  7 active torsions:
REMARK  status: ('A' for Active; 'I' for Inactive)
REMARK    1  A    between atoms: O3_3  and  C12_12 
REMARK    2  A    between atoms: O4_4  and  C13_13 
REMARK    3  A    between atoms: O5_5  and  C16_16 
REMARK    4  A    between atoms: O6_6  and  C19_19 
REMARK    5  A    between atoms: O8_8  and  C21_21 
REMARK    6  A    between atoms: O9_9  and  C22_22 
REMARK    7  A    between atoms: C14_14  and  C16_16 
ROOT
ATOM      1  O1  RES d   1     101.382  36.578  36.594  0.00  0.00    -0.368 OA
ATOM      2  O2  RES d   1     103.449  38.182  34.040  0.00  0.00    -0.306 OA
ATOM      3  O7  RES d   1     103.016  38.733  31.943  0.00  0.00    -0.259 OA
ATOM      4  C10 RES d   1     102.869  37.949  35.331  0.00  0.00     0.197 C 
ATOM      5  C11 RES d   1     101.941  36.736  35.300  0.00  0.00     0.191 C 
ATOM      6  C12 RES d   1     103.980  37.741  36.346  0.00  0.00     0.181 C 
ATOM      7  C13 RES d   1     103.386  37.339  37.706  0.00  0.00     0.180 C 
ATOM      8  C14 RES d   1     102.360  36.211  37.570  0.00  0.00     0.177 C 
ATOM      9  C15 RES d   1     100.879  36.963  34.257  0.00  0.00     0.026 A 
ATOM     10  C17 RES d   1     101.209  37.770  33.156  0.00  0.00     0.054 A 
ATOM     11  C18 RES d   1     102.603  38.288  32.979  0.00  0.00     0.294 C 
ATOM     12  C19 RES d   1      99.612  36.377  34.286  0.00  0.00     0.111 A 
ATOM     13  C20 RES d   1     100.306  38.020  32.126  0.00  0.00     0.057 A 
ATOM     14  C21 RES d   1      98.686  36.681  33.285  0.00  0.00     0.135 A 
ATOM     15  C22 RES d   1      99.032  37.478  32.195  0.00  0.00     0.102 A 
ENDROOT
BRANCH   8  16
ATOM     16  C16 RES d   1     101.575  35.916  38.837  0.00  0.00     0.198 C 
BRANCH  16  17
ATOM     17  O5  RES d   1     100.212  36.279  38.686  0.00  0.00    -0.398 OA
ATOM     18  H34 RES d   1     100.152  37.230  38.851  0.00  0.00     0.209 HD
ENDBRANCH  16  17
ENDBRANCH   8  16
BRANCH   7  19
ATOM     19  O4  RES d   1     104.432  37.030  38.628  0.00  0.00    -0.390 OA
ATOM     20  H32 RES d   1     105.252  37.441  38.323  0.00  0.00     0.210 HD
ENDBRANCH   7  19
BRANCH   6  21
ATOM     21  O3  RES d   1     104.736  38.930  36.462  0.00  0.00    -0.390 OA
ATOM     22  H31 RES d   1     104.120  39.651  36.648  0.00  0.00     0.210 HD
ENDBRANCH   6  21
BRANCH  12  23
ATOM     23  O6  RES d   1      99.252  35.497  35.265  0.00  0.00    -0.357 OA
ATOM     24  H35 RES d   1      98.317  35.288  35.123  0.00  0.00     0.217 HD
ENDBRANCH  12  23
BRANCH  14  25
ATOM     25  O8  RES d   1      97.429  36.103  33.338  0.00  0.00    -0.351 OA
ATOM     26  C23 RES d   1      96.441  36.909  34.022  0.00  0.00     0.210 C 
ENDBRANCH  14  25
BRANCH  15  27
ATOM     27  O9  RES d   1      98.138  37.713  31.198  0.00  0.00    -0.358 OA
ATOM     28  H36 RES d   1      98.372  37.153  30.444  0.00  0.00     0.217 HD
ENDBRANCH  15  27
TORSDOF 7
ENDMDL
MODEL 6
REMARK VINA RESULT:    -6.974      1.625      4.127
REMARK INTER + INTRA:          -8.834
REMARK INTER:                  -8.523
REMARK INTRA:                  -0.311
REMARK UNBOUND:                -0.026
REMARK  7 active torsions:
REMARK  status: ('A' for Active; 'I' for Inactive)
REMARK    1  A    between atoms: O3_3  and  C12_12 
REMARK    2  A    between atoms: O4_4  and  C13_13 
REMARK    3  A    between atoms: O5_5  and  C16_16 
REMARK    4  A    between atoms: O6_6  and  C19_19 
REMARK    5  A    between atoms: O8_8  and  C21_21 
REMARK    6  A    between atoms: O9_9  and  C22_22 
REMARK    7  A    between atoms: C14_14  and  C16_16 
ROOT
ATOM      1  O1  RES d   1     102.889  36.978  36.164  0.00  0.00    -0.368 OA
ATOM      2  O2  RES d   1     101.409  38.727  33.314  0.00  0.00    -0.306 OA
ATOM      3  O7  RES d   1     102.333  39.693  31.552  0.00  0.00    -0.259 OA
ATOM      4  C10 RES d   1     101.577  37.710  34.312  0.00  0.00     0.197 C 
ATOM      5  C11 RES d   1     102.761  38.031  35.223  0.00  0.00     0.191 C 
ATOM      6  C12 RES d   1     100.300  37.593  35.124  0.00  0.00     0.181 C 
ATOM      7  C13 RES d   1     100.504  36.619  36.296  0.00  0.00     0.180 C 
ATOM      8  C14 RES d   1     101.787  36.924  37.074  0.00  0.00     0.177 C 
ATOM      9  C15 RES d   1     103.999  38.177  34.378  0.00  0.00     0.026 A 
ATOM     10  C17 RES d   1     103.837  38.626  33.057  0.00  0.00     0.054 A 
ATOM     11  C18 RES d   1     102.491  39.047  32.552  0.00  0.00     0.294 C 
ATOM     12  C19 RES d   1     105.296  37.953  34.842  0.00  0.00     0.111 A 
ATOM     13  C20 RES d   1     104.920  38.818  32.203  0.00  0.00     0.057 A 
ATOM     14  C21 RES d   1     106.376  38.084  33.965  0.00  0.00     0.135 A 
ATOM     15  C22 RES d   1     106.199  38.537  32.659  0.00  0.00     0.102 A 
ENDROOT
BRANCH   8  16
ATOM     16  C16 RES d   1     102.165  35.871  38.103  0.00  0.00     0.198 C 
BRANCH  16  17
ATOM     17  O5  RES d   1     101.205  35.813  39.145  0.00  0.00    -0.398 OA
ATOM     18  H34 RES d   1     101.693  35.762  39.978  0.00  0.00     0.209 HD
ENDBRANCH  16  17
ENDBRANCH   8  16
BRANCH   7  19
ATOM     19  O4  RES d   1      99.342  36.598  37.126  0.00  0.00    -0.390 OA
ATOM     20  H32 RES d   1      98.675  36.030  36.720  0.00  0.00     0.210 HD
ENDBRANCH   7  19
BRANCH   6  21
ATOM     21  O3  RES d   1      99.251  37.153  34.284  0.00  0.00    -0.390 OA
ATOM     22  H31 RES d   1      99.115  36.212  34.455  0.00  0.00     0.210 HD
ENDBRANCH   6  21
BRANCH  12  23
ATOM     23  O6  RES d   1     105.545  37.620  36.141  0.00  0.00    -0.357 OA
ATOM     24  H35 RES d   1     105.964  36.746  36.131  0.00  0.00     0.217 HD
ENDBRANCH  12  23
BRANCH  14  25
ATOM     25  O8  RES d   1     107.655  37.843  34.438  0.00  0.00    -0.351 OA
ATOM     26  C23 RES d   1     108.105  36.482  34.241  0.00  0.00     0.210 C 
ENDBRANCH  14  25
BRANCH  15  27
ATOM     27  O9  RES d   1     107.268  38.719  31.838  0.00  0.00    -0.358 OA
ATOM     28  H36 RES d   1     107.706  37.863  31.719  0.00  0.00     0.217 HD
ENDBRANCH  15  27
TORSDOF 7
ENDMDL
MODEL 7
REMARK VINA RESULT:    -6.943      3.825      5.682
REMARK INTER + INTRA:          -8.795
REMARK INTER:                  -8.468
REMARK INTRA:                  -0.327
REMARK UNBOUND:                -0.026
REMARK  7 active torsions:
REMARK  status: ('A' for Active; 'I' for Inactive)
REMARK    1  A    between atoms: O3_3  and  C12_12 
REMARK    2  A    between atoms: O4_4  and  C13_13 
REMARK    3  A    between atoms: O5_5  and  C16_16 
REMARK    4  A    between atoms: O6_6  and  C19_19 
REMARK    5  A    between atoms: O8_8  and  C21_21 
REMARK    6  A    between atoms: O9_9  and  C22_22 
REMARK    7  A    between atoms: C14_14  and  C16_16 
ROOT
ATOM      1  O1  RES d   1     100.737  35.898  35.204  0.00  0.00    -0.368 OA
ATOM      2  O2  RES d   1      98.857  36.403  32.109  0.00  0.00    -0.306 OA
ATOM      3  O7  RES d   1      98.975  35.392  30.146  0.00  0.00    -0.259 OA
ATOM      4  C10 RES d   1      99.090  36.254  33.517  0.00  0.00     0.197 C 
ATOM      5  C11 RES d   1     100.579  36.067  33.805  0.00  0.00     0.191 C 
ATOM      6  C12 RES d   1      98.560  37.478  34.242  0.00  0.00     0.181 C 
ATOM      7  C13 RES d   1      98.933  37.414  35.732  0.00  0.00     0.180 C 
ATOM      8  C14 RES d   1     100.413  37.083  35.937  0.00  0.00     0.177 C 
ATOM      9  C15 RES d   1     101.075  34.869  33.040  0.00  0.00     0.026 A 
ATOM     10  C17 RES d   1     100.429  34.553  31.833  0.00  0.00     0.054 A 
ATOM     11  C18 RES d   1      99.360  35.446  31.283  0.00  0.00     0.294 C 
ATOM     12  C19 RES d   1     102.171  34.093  33.421  0.00  0.00     0.111 A 
ATOM     13  C20 RES d   1     100.828  33.481  31.039  0.00  0.00     0.057 A 
ATOM     14  C21 RES d   1     102.530  32.979  32.657  0.00  0.00     0.135 A 
ATOM     15  C22 RES d   1     101.882  32.684  31.458  0.00  0.00     0.102 A 
ENDROOT
BRANCH   8  16
ATOM     16  C16 RES d   1     100.801  36.787  37.376  0.00  0.00     0.198 C 
BRANCH  16  17
ATOM     17  O5  RES d   1      99.652  36.546  38.171  0.00  0.00    -0.398 OA
ATOM     18  H34 RES d   1      99.955  36.127  38.989  0.00  0.00     0.209 HD
ENDBRANCH  16  17
ENDBRANCH   8  16
BRANCH   7  19
ATOM     19  O4  RES d   1      98.536  38.618  36.391  0.00  0.00    -0.390 OA
ATOM     20  H32 RES d   1      97.596  38.772  36.227  0.00  0.00     0.210 HD
ENDBRANCH   7  19
BRANCH   6  21
ATOM     21  O3  RES d   1      97.157  37.546  34.080  0.00  0.00    -0.390 OA
ATOM     22  H31 RES d   1      96.976  37.644  33.136  0.00  0.00     0.210 HD
ENDBRANCH   6  21
BRANCH  12  23
ATOM     23  O6  RES d   1     102.917  34.399  34.521  0.00  0.00    -0.357 OA
ATOM     24  H35 RES d   1     103.067  33.568  34.998  0.00  0.00     0.217 HD
ENDBRANCH  12  23
BRANCH  14  25
ATOM     25  O8  RES d   1     103.609  32.211  33.059  0.00  0.00    -0.351 OA
ATOM     26  C23 RES d   1     103.259  31.132  33.957  0.00  0.00     0.210 C 
ENDBRANCH  14  25
BRANCH  15  27
ATOM     27  O9  RES d   1     102.284  31.633  30.695  0.00  0.00    -0.358 OA
ATOM     28  H36 RES d   1     101.499  31.125  30.442  0.00  0.00     0.217 HD
ENDBRANCH  15  27
TORSDOF 7
ENDMDL
MODEL 8
REMARK VINA RESULT:    -6.914      3.644      5.431
REMARK INTER + INTRA:          -8.758
REMARK INTER:                  -8.464
REMARK INTRA:                  -0.294
REMARK UNBOUND:                -0.026
REMARK  7 active torsions:
REMARK  status: ('A' for Active; 'I' for Inactive)
REMARK    1  A    between atoms: O3_3  and  C12_12 
REMARK    2  A    between atoms: O4_4  and  C13_13 
REMARK    3  A    between atoms: O5_5  and  C16_16 
REMARK    4  A    between atoms: O6_6  and  C19_19 
REMARK    5  A    between atoms: O8_8  and  C21_21 
REMARK    6  A    between atoms: O9_9  and  C22_22 
REMARK    7  A    between atoms: C14_14  and  C16_16 
ROOT
ATOM      1  O1  RES d   1     101.918  35.558  35.528  0.00  0.00    -0.368 OA
ATOM      2  O2  RES d   1      99.257  37.513  33.958  0.00  0.00    -0.306 OA
ATOM      3  O7  RES d   1      98.144  37.217  32.070  0.00  0.00    -0.259 OA
ATOM      4  C10 RES d   1      99.985  36.852  35.002  0.00  0.00     0.197 C 
ATOM      5  C11 RES d   1     101.263  36.216  34.456  0.00  0.00     0.191 C 
ATOM      6  C12 RES d   1     100.318  37.857  36.091  0.00  0.00     0.181 C 
ATOM      7  C13 RES d   1     101.228  37.210  37.148  0.00  0.00     0.180 C 
ATOM      8  C14 RES d   1     102.409  36.473  36.511  0.00  0.00     0.177 C 
ATOM      9  C15 RES d   1     100.896  35.258  33.354  0.00  0.00     0.026 A 
ATOM     10  C17 RES d   1      99.736  35.531  32.612  0.00  0.00     0.054 A 
ATOM     11  C18 RES d   1      98.961  36.793  32.842  0.00  0.00     0.294 C 
ATOM     12  C19 RES d   1     101.665  34.152  32.987  0.00  0.00     0.111 A 
ATOM     13  C20 RES d   1      99.324  34.721  31.557  0.00  0.00     0.057 A 
ATOM     14  C21 RES d   1     101.217  33.304  31.971  0.00  0.00     0.135 A 
ATOM     15  C22 RES d   1     100.067  33.594  31.239  0.00  0.00     0.102 A 
ENDROOT
BRANCH   8  16
ATOM     16  C16 RES d   1     103.222  35.629  37.478  0.00  0.00     0.198 C 
BRANCH  16  17
ATOM     17  O5  RES d   1     103.700  36.414  38.558  0.00  0.00    -0.398 OA
ATOM     18  H34 RES d   1     103.688  37.336  38.266  0.00  0.00     0.209 HD
ENDBRANCH  16  17
ENDBRANCH   8  16
BRANCH   7  19
ATOM     19  O4  RES d   1     101.634  38.185  38.110  0.00  0.00    -0.390 OA
ATOM     20  H32 RES d   1     101.698  39.047  37.677  0.00  0.00     0.210 HD
ENDBRANCH   7  19
BRANCH   6  21
ATOM     21  O3  RES d   1      99.118  38.321  36.680  0.00  0.00    -0.390 OA
ATOM     22  H31 RES d   1      98.496  37.582  36.696  0.00  0.00     0.210 HD
ENDBRANCH   6  21
BRANCH  12  23
ATOM     23  O6  RES d   1     102.859  33.879  33.588  0.00  0.00    -0.357 OA
ATOM     24  H35 RES d   1     102.742  34.046  34.535  0.00  0.00     0.217 HD
ENDBRANCH  12  23
BRANCH  14  25
ATOM     25  O8  RES d   1     101.985  32.203  31.631  0.00  0.00    -0.351 OA
ATOM     26  C23 RES d   1     101.610  30.990  32.325  0.00  0.00     0.210 C 
ENDBRANCH  14  25
BRANCH  15  27
ATOM     27  O9  RES d   1      99.679  32.791  30.213  0.00  0.00    -0.358 OA
ATOM     28  H36 RES d   1      99.576  33.341  29.422  0.00  0.00     0.217 HD
ENDBRANCH  15  27
TORSDOF 7
ENDMDL
MODEL 9
REMARK VINA RESULT:    -6.868      1.856      4.377
REMARK INTER + INTRA:          -8.700
REMARK INTER:                  -8.452
REMARK INTRA:                  -0.248
REMARK UNBOUND:                -0.026
REMARK  7 active torsions:
REMARK  status: ('A' for Active; 'I' for Inactive)
REMARK    1  A    between atoms: O3_3  and  C12_12 
REMARK    2  A    between atoms: O4_4  and  C13_13 
REMARK    3  A    between atoms: O5_5  and  C16_16 
REMARK    4  A    between atoms: O6_6  and  C19_19 
REMARK    5  A    between atoms: O8_8  and  C21_21 
REMARK    6  A    between atoms: O9_9  and  C22_22 
REMARK    7  A    between atoms: C14_14  and  C16_16 
ROOT
ATOM      1  O1  RES d   1     103.678  37.400  35.156  0.00  0.00    -0.368 OA
ATOM      2  O2  RES d   1     100.672  36.572  37.066  0.00  0.00    -0.306 OA
ATOM      3  O7  RES d   1      98.556  36.385  36.453  0.00  0.00    -0.259 OA
ATOM      4  C10 RES d   1     102.032  36.483  36.617  0.00  0.00     0.197 C 
ATOM      5  C11 RES d   1     102.333  37.560  35.577  0.00  0.00     0.191 C 
ATOM      6  C12 RES d   1     102.961  36.624  37.810  0.00  0.00     0.181 C 
ATOM      7  C13 RES d   1     104.423  36.684  37.338  0.00  0.00     0.180 C 
ATOM      8  C14 RES d   1     104.614  37.687  36.198  0.00  0.00     0.177 C 
ATOM      9  C15 RES d   1     101.368  37.412  34.431  0.00  0.00     0.026 A 
ATOM     10  C17 RES d   1     100.101  36.877  34.710  0.00  0.00     0.054 A 
ATOM     11  C18 RES d   1      99.695  36.571  36.120  0.00  0.00     0.294 C 
ATOM     12  C19 RES d   1     101.632  37.828  33.124  0.00  0.00     0.111 A 
ATOM     13  C20 RES d   1      99.129  36.723  33.725  0.00  0.00     0.057 A 
ATOM     14  C21 RES d   1     100.680  37.613  32.124  0.00  0.00     0.135 A 
ATOM     15  C22 RES d   1      99.424  37.087  32.421  0.00  0.00     0.102 A 
ENDROOT
BRANCH   8  16
ATOM     16  C16 RES d   1     105.981  37.639  35.537  0.00  0.00     0.198 C 
BRANCH  16  17
ATOM     17  O5  RES d   1     106.747  36.555  36.036  0.00  0.00    -0.398 OA
ATOM     18  H34 RES d   1     106.211  35.756  35.931  0.00  0.00     0.209 HD
ENDBRANCH  16  17
ENDBRANCH   8  16
BRANCH   7  19
ATOM     19  O4  RES d   1     105.288  36.933  38.448  0.00  0.00    -0.390 OA
ATOM     20  H32 RES d   1     105.779  37.749  38.287  0.00  0.00     0.210 HD
ENDBRANCH   7  19
BRANCH   6  21
ATOM     21  O3  RES d   1     102.763  35.532  38.687  0.00  0.00    -0.390 OA
ATOM     22  H31 RES d   1     102.766  35.878  39.589  0.00  0.00     0.210 HD
ENDBRANCH   6  21
BRANCH  12  23
ATOM     23  O6  RES d   1     102.797  38.455  32.793  0.00  0.00    -0.357 OA
ATOM     24  H35 RES d   1     102.560  39.342  32.484  0.00  0.00     0.217 HD
ENDBRANCH  12  23
BRANCH  14  25
ATOM     25  O8  RES d   1     100.965  38.017  30.831  0.00  0.00    -0.351 OA
ATOM     26  C23 RES d   1     100.551  39.372  30.536  0.00  0.00     0.210 C 
ENDBRANCH  14  25
BRANCH  15  27
ATOM     27  O9  RES d   1      98.486  36.942  31.446  0.00  0.00    -0.358 OA
ATOM     28  H36 RES d   1      97.714  37.474  31.688  0.00  0.00     0.217 HD
ENDBRANCH  15  27
TORSDOF 7
ENDMDL
